*SPEF "ieee 1481-1999"
*DESIGN "counter"
*DATE "19:47:18 Thursday June 26, 2025"
*VENDOR "The OpenROAD Project"
*PROGRAM "OpenROAD"
*VERSION "2.0-unstable-2025-03-01_e794373d44ac5421f0633d8dda7e5c59e8fe79bf"
*DESIGN_FLOW "NAME_SCOPE LOCAL" "PIN_CAP NONE"
*DIVIDER /
*DELIMITER :
*BUS_DELIMITER []
*T_UNIT 1 NS
*C_UNIT 1 PF
*R_UNIT 1 OHM
*L_UNIT 1 HENRY

*NAME_MAP
*3 clk
*4 count[0]
*5 count[1]
*6 count[2]
*7 count[3]
*8 count[4]
*9 count[5]
*10 count[6]
*11 count[7]
*12 enable
*13 overflow
*14 rst_n
*15 _00_
*16 _01_
*17 _02_
*18 _03_
*19 _04_
*20 _05_
*21 _06_
*22 _07_
*23 _08_
*24 _09_
*25 _10_
*26 _11_
*27 _12_
*28 _13_
*29 _14_
*30 _15_
*31 _16_
*32 _17_
*33 clknet_0_clk
*34 clknet_1_0__leaf_clk
*35 clknet_1_1__leaf_clk
*36 net1
*37 net10
*38 net11
*39 net12
*40 net13
*41 net14
*42 net15
*43 net16
*44 net17
*45 net18
*46 net2
*47 net3
*48 net4
*49 net5
*50 net6
*51 net7
*52 net8
*53 net9
*54 FILLER_0_109
*55 FILLER_0_113
*56 FILLER_0_125
*57 FILLER_0_137
*58 FILLER_0_141
*59 FILLER_0_15
*60 FILLER_0_153
*61 FILLER_0_165
*62 FILLER_0_169
*63 FILLER_0_181
*64 FILLER_0_189
*65 FILLER_0_27
*66 FILLER_0_29
*67 FILLER_0_3
*68 FILLER_0_41
*69 FILLER_0_53
*70 FILLER_0_57
*71 FILLER_0_65
*72 FILLER_0_77
*73 FILLER_0_83
*74 FILLER_0_85
*75 FILLER_0_97
*76 FILLER_10_115
*77 FILLER_10_119
*78 FILLER_10_149
*79 FILLER_10_15
*80 FILLER_10_161
*81 FILLER_10_173
*82 FILLER_10_185
*83 FILLER_10_27
*84 FILLER_10_29
*85 FILLER_10_3
*86 FILLER_10_41
*87 FILLER_10_53
*88 FILLER_10_82
*89 FILLER_10_85
*90 FILLER_11_106
*91 FILLER_11_113
*92 FILLER_11_125
*93 FILLER_11_132
*94 FILLER_11_144
*95 FILLER_11_156
*96 FILLER_11_169
*97 FILLER_11_181
*98 FILLER_11_189
*99 FILLER_11_19
*100 FILLER_11_31
*101 FILLER_11_35
*102 FILLER_11_60
*103 FILLER_11_67
*104 FILLER_11_7
*105 FILLER_11_73
*106 FILLER_11_84
*107 FILLER_11_94
*108 FILLER_12_109
*109 FILLER_12_121
*110 FILLER_12_133
*111 FILLER_12_139
*112 FILLER_12_141
*113 FILLER_12_15
*114 FILLER_12_153
*115 FILLER_12_165
*116 FILLER_12_177
*117 FILLER_12_189
*118 FILLER_12_27
*119 FILLER_12_29
*120 FILLER_12_3
*121 FILLER_12_41
*122 FILLER_12_49
*123 FILLER_12_59
*124 FILLER_12_71
*125 FILLER_12_83
*126 FILLER_12_85
*127 FILLER_12_97
*128 FILLER_13_105
*129 FILLER_13_111
*130 FILLER_13_113
*131 FILLER_13_125
*132 FILLER_13_137
*133 FILLER_13_149
*134 FILLER_13_15
*135 FILLER_13_161
*136 FILLER_13_167
*137 FILLER_13_169
*138 FILLER_13_181
*139 FILLER_13_189
*140 FILLER_13_27
*141 FILLER_13_3
*142 FILLER_13_39
*143 FILLER_13_51
*144 FILLER_13_55
*145 FILLER_13_57
*146 FILLER_13_69
*147 FILLER_13_81
*148 FILLER_13_93
*149 FILLER_14_109
*150 FILLER_14_117
*151 FILLER_14_139
*152 FILLER_14_141
*153 FILLER_14_153
*154 FILLER_14_165
*155 FILLER_14_177
*156 FILLER_14_185
*157 FILLER_14_19
*158 FILLER_14_27
*159 FILLER_14_29
*160 FILLER_14_41
*161 FILLER_14_53
*162 FILLER_14_61
*163 FILLER_14_7
*164 FILLER_14_85
*165 FILLER_14_97
*166 FILLER_15_120
*167 FILLER_15_128
*168 FILLER_15_149
*169 FILLER_15_15
*170 FILLER_15_161
*171 FILLER_15_167
*172 FILLER_15_169
*173 FILLER_15_181
*174 FILLER_15_189
*175 FILLER_15_27
*176 FILLER_15_3
*177 FILLER_15_39
*178 FILLER_15_51
*179 FILLER_15_55
*180 FILLER_15_57
*181 FILLER_15_69
*182 FILLER_15_81
*183 FILLER_15_89
*184 FILLER_16_103
*185 FILLER_16_109
*186 FILLER_16_115
*187 FILLER_16_123
*188 FILLER_16_135
*189 FILLER_16_139
*190 FILLER_16_149
*191 FILLER_16_15
*192 FILLER_16_161
*193 FILLER_16_173
*194 FILLER_16_185
*195 FILLER_16_189
*196 FILLER_16_27
*197 FILLER_16_29
*198 FILLER_16_3
*199 FILLER_16_41
*200 FILLER_16_53
*201 FILLER_16_65
*202 FILLER_16_77
*203 FILLER_16_83
*204 FILLER_16_85
*205 FILLER_16_97
*206 FILLER_17_102
*207 FILLER_17_108
*208 FILLER_17_113
*209 FILLER_17_125
*210 FILLER_17_137
*211 FILLER_17_149
*212 FILLER_17_15
*213 FILLER_17_161
*214 FILLER_17_167
*215 FILLER_17_169
*216 FILLER_17_181
*217 FILLER_17_189
*218 FILLER_17_27
*219 FILLER_17_3
*220 FILLER_17_35
*221 FILLER_17_90
*222 FILLER_18_113
*223 FILLER_18_125
*224 FILLER_18_137
*225 FILLER_18_141
*226 FILLER_18_15
*227 FILLER_18_153
*228 FILLER_18_165
*229 FILLER_18_177
*230 FILLER_18_189
*231 FILLER_18_27
*232 FILLER_18_29
*233 FILLER_18_3
*234 FILLER_18_41
*235 FILLER_18_53
*236 FILLER_18_72
*237 FILLER_18_93
*238 FILLER_18_99
*239 FILLER_19_105
*240 FILLER_19_111
*241 FILLER_19_133
*242 FILLER_19_145
*243 FILLER_19_157
*244 FILLER_19_165
*245 FILLER_19_169
*246 FILLER_19_181
*247 FILLER_19_189
*248 FILLER_19_19
*249 FILLER_19_31
*250 FILLER_19_43
*251 FILLER_19_55
*252 FILLER_19_57
*253 FILLER_19_69
*254 FILLER_19_7
*255 FILLER_19_81
*256 FILLER_19_93
*257 FILLER_1_105
*258 FILLER_1_111
*259 FILLER_1_113
*260 FILLER_1_125
*261 FILLER_1_137
*262 FILLER_1_149
*263 FILLER_1_15
*264 FILLER_1_161
*265 FILLER_1_167
*266 FILLER_1_169
*267 FILLER_1_181
*268 FILLER_1_189
*269 FILLER_1_27
*270 FILLER_1_3
*271 FILLER_1_39
*272 FILLER_1_51
*273 FILLER_1_55
*274 FILLER_1_57
*275 FILLER_1_69
*276 FILLER_1_81
*277 FILLER_1_93
*278 FILLER_20_109
*279 FILLER_20_121
*280 FILLER_20_133
*281 FILLER_20_139
*282 FILLER_20_141
*283 FILLER_20_15
*284 FILLER_20_153
*285 FILLER_20_165
*286 FILLER_20_177
*287 FILLER_20_185
*288 FILLER_20_27
*289 FILLER_20_29
*290 FILLER_20_3
*291 FILLER_20_41
*292 FILLER_20_53
*293 FILLER_20_65
*294 FILLER_20_77
*295 FILLER_20_83
*296 FILLER_20_85
*297 FILLER_20_97
*298 FILLER_21_105
*299 FILLER_21_111
*300 FILLER_21_113
*301 FILLER_21_125
*302 FILLER_21_137
*303 FILLER_21_149
*304 FILLER_21_15
*305 FILLER_21_161
*306 FILLER_21_167
*307 FILLER_21_169
*308 FILLER_21_181
*309 FILLER_21_189
*310 FILLER_21_27
*311 FILLER_21_3
*312 FILLER_21_39
*313 FILLER_21_51
*314 FILLER_21_55
*315 FILLER_21_57
*316 FILLER_21_69
*317 FILLER_21_81
*318 FILLER_21_93
*319 FILLER_22_109
*320 FILLER_22_121
*321 FILLER_22_133
*322 FILLER_22_139
*323 FILLER_22_141
*324 FILLER_22_15
*325 FILLER_22_153
*326 FILLER_22_165
*327 FILLER_22_177
*328 FILLER_22_189
*329 FILLER_22_27
*330 FILLER_22_29
*331 FILLER_22_3
*332 FILLER_22_41
*333 FILLER_22_53
*334 FILLER_22_65
*335 FILLER_22_77
*336 FILLER_22_83
*337 FILLER_22_85
*338 FILLER_22_97
*339 FILLER_23_105
*340 FILLER_23_111
*341 FILLER_23_113
*342 FILLER_23_125
*343 FILLER_23_137
*344 FILLER_23_149
*345 FILLER_23_15
*346 FILLER_23_161
*347 FILLER_23_167
*348 FILLER_23_169
*349 FILLER_23_181
*350 FILLER_23_189
*351 FILLER_23_27
*352 FILLER_23_3
*353 FILLER_23_39
*354 FILLER_23_51
*355 FILLER_23_55
*356 FILLER_23_57
*357 FILLER_23_69
*358 FILLER_23_81
*359 FILLER_23_93
*360 FILLER_24_109
*361 FILLER_24_121
*362 FILLER_24_133
*363 FILLER_24_139
*364 FILLER_24_141
*365 FILLER_24_15
*366 FILLER_24_153
*367 FILLER_24_165
*368 FILLER_24_177
*369 FILLER_24_189
*370 FILLER_24_27
*371 FILLER_24_29
*372 FILLER_24_3
*373 FILLER_24_41
*374 FILLER_24_53
*375 FILLER_24_65
*376 FILLER_24_77
*377 FILLER_24_83
*378 FILLER_24_85
*379 FILLER_24_97
*380 FILLER_25_105
*381 FILLER_25_111
*382 FILLER_25_113
*383 FILLER_25_125
*384 FILLER_25_137
*385 FILLER_25_149
*386 FILLER_25_15
*387 FILLER_25_161
*388 FILLER_25_167
*389 FILLER_25_169
*390 FILLER_25_181
*391 FILLER_25_189
*392 FILLER_25_27
*393 FILLER_25_3
*394 FILLER_25_39
*395 FILLER_25_51
*396 FILLER_25_55
*397 FILLER_25_57
*398 FILLER_25_69
*399 FILLER_25_81
*400 FILLER_25_93
*401 FILLER_26_109
*402 FILLER_26_121
*403 FILLER_26_133
*404 FILLER_26_139
*405 FILLER_26_141
*406 FILLER_26_15
*407 FILLER_26_153
*408 FILLER_26_165
*409 FILLER_26_177
*410 FILLER_26_189
*411 FILLER_26_27
*412 FILLER_26_29
*413 FILLER_26_3
*414 FILLER_26_41
*415 FILLER_26_53
*416 FILLER_26_65
*417 FILLER_26_77
*418 FILLER_26_83
*419 FILLER_26_85
*420 FILLER_26_97
*421 FILLER_27_109
*422 FILLER_27_113
*423 FILLER_27_121
*424 FILLER_27_126
*425 FILLER_27_138
*426 FILLER_27_141
*427 FILLER_27_15
*428 FILLER_27_153
*429 FILLER_27_165
*430 FILLER_27_169
*431 FILLER_27_181
*432 FILLER_27_189
*433 FILLER_27_27
*434 FILLER_27_29
*435 FILLER_27_3
*436 FILLER_27_41
*437 FILLER_27_53
*438 FILLER_27_57
*439 FILLER_27_69
*440 FILLER_27_81
*441 FILLER_27_85
*442 FILLER_27_97
*443 FILLER_2_109
*444 FILLER_2_121
*445 FILLER_2_133
*446 FILLER_2_139
*447 FILLER_2_141
*448 FILLER_2_15
*449 FILLER_2_153
*450 FILLER_2_165
*451 FILLER_2_177
*452 FILLER_2_189
*453 FILLER_2_27
*454 FILLER_2_29
*455 FILLER_2_3
*456 FILLER_2_41
*457 FILLER_2_53
*458 FILLER_2_65
*459 FILLER_2_77
*460 FILLER_2_83
*461 FILLER_2_85
*462 FILLER_2_97
*463 FILLER_3_105
*464 FILLER_3_111
*465 FILLER_3_113
*466 FILLER_3_125
*467 FILLER_3_137
*468 FILLER_3_149
*469 FILLER_3_15
*470 FILLER_3_161
*471 FILLER_3_167
*472 FILLER_3_169
*473 FILLER_3_181
*474 FILLER_3_189
*475 FILLER_3_27
*476 FILLER_3_3
*477 FILLER_3_39
*478 FILLER_3_51
*479 FILLER_3_55
*480 FILLER_3_57
*481 FILLER_3_69
*482 FILLER_3_81
*483 FILLER_3_93
*484 FILLER_4_109
*485 FILLER_4_121
*486 FILLER_4_133
*487 FILLER_4_139
*488 FILLER_4_141
*489 FILLER_4_15
*490 FILLER_4_153
*491 FILLER_4_165
*492 FILLER_4_177
*493 FILLER_4_189
*494 FILLER_4_27
*495 FILLER_4_29
*496 FILLER_4_3
*497 FILLER_4_41
*498 FILLER_4_53
*499 FILLER_4_65
*500 FILLER_4_77
*501 FILLER_4_83
*502 FILLER_4_85
*503 FILLER_4_97
*504 FILLER_5_105
*505 FILLER_5_111
*506 FILLER_5_113
*507 FILLER_5_125
*508 FILLER_5_137
*509 FILLER_5_149
*510 FILLER_5_15
*511 FILLER_5_161
*512 FILLER_5_167
*513 FILLER_5_169
*514 FILLER_5_181
*515 FILLER_5_189
*516 FILLER_5_27
*517 FILLER_5_3
*518 FILLER_5_39
*519 FILLER_5_51
*520 FILLER_5_55
*521 FILLER_5_57
*522 FILLER_5_69
*523 FILLER_5_81
*524 FILLER_5_93
*525 FILLER_6_109
*526 FILLER_6_121
*527 FILLER_6_133
*528 FILLER_6_139
*529 FILLER_6_141
*530 FILLER_6_15
*531 FILLER_6_153
*532 FILLER_6_165
*533 FILLER_6_177
*534 FILLER_6_189
*535 FILLER_6_27
*536 FILLER_6_29
*537 FILLER_6_3
*538 FILLER_6_41
*539 FILLER_6_53
*540 FILLER_6_65
*541 FILLER_6_77
*542 FILLER_6_83
*543 FILLER_6_85
*544 FILLER_6_97
*545 FILLER_7_105
*546 FILLER_7_111
*547 FILLER_7_113
*548 FILLER_7_125
*549 FILLER_7_137
*550 FILLER_7_149
*551 FILLER_7_15
*552 FILLER_7_161
*553 FILLER_7_167
*554 FILLER_7_169
*555 FILLER_7_181
*556 FILLER_7_189
*557 FILLER_7_27
*558 FILLER_7_3
*559 FILLER_7_39
*560 FILLER_7_51
*561 FILLER_7_55
*562 FILLER_7_57
*563 FILLER_7_69
*564 FILLER_7_81
*565 FILLER_7_93
*566 FILLER_8_109
*567 FILLER_8_121
*568 FILLER_8_133
*569 FILLER_8_139
*570 FILLER_8_141
*571 FILLER_8_15
*572 FILLER_8_153
*573 FILLER_8_165
*574 FILLER_8_177
*575 FILLER_8_189
*576 FILLER_8_27
*577 FILLER_8_29
*578 FILLER_8_3
*579 FILLER_8_41
*580 FILLER_8_53
*581 FILLER_8_65
*582 FILLER_8_77
*583 FILLER_8_83
*584 FILLER_8_85
*585 FILLER_8_97
*586 FILLER_9_105
*587 FILLER_9_111
*588 FILLER_9_113
*589 FILLER_9_128
*590 FILLER_9_140
*591 FILLER_9_15
*592 FILLER_9_152
*593 FILLER_9_164
*594 FILLER_9_169
*595 FILLER_9_181
*596 FILLER_9_185
*597 FILLER_9_27
*598 FILLER_9_3
*599 FILLER_9_39
*600 FILLER_9_51
*601 FILLER_9_55
*602 FILLER_9_77
*603 FILLER_9_93
*604 PHY_EDGE_ROW_0_Left_28
*605 PHY_EDGE_ROW_0_Right_0
*606 PHY_EDGE_ROW_10_Left_38
*607 PHY_EDGE_ROW_10_Right_10
*608 PHY_EDGE_ROW_11_Left_39
*609 PHY_EDGE_ROW_11_Right_11
*610 PHY_EDGE_ROW_12_Left_40
*611 PHY_EDGE_ROW_12_Right_12
*612 PHY_EDGE_ROW_13_Left_41
*613 PHY_EDGE_ROW_13_Right_13
*614 PHY_EDGE_ROW_14_Left_42
*615 PHY_EDGE_ROW_14_Right_14
*616 PHY_EDGE_ROW_15_Left_43
*617 PHY_EDGE_ROW_15_Right_15
*618 PHY_EDGE_ROW_16_Left_44
*619 PHY_EDGE_ROW_16_Right_16
*620 PHY_EDGE_ROW_17_Left_45
*621 PHY_EDGE_ROW_17_Right_17
*622 PHY_EDGE_ROW_18_Left_46
*623 PHY_EDGE_ROW_18_Right_18
*624 PHY_EDGE_ROW_19_Left_47
*625 PHY_EDGE_ROW_19_Right_19
*626 PHY_EDGE_ROW_1_Left_29
*627 PHY_EDGE_ROW_1_Right_1
*628 PHY_EDGE_ROW_20_Left_48
*629 PHY_EDGE_ROW_20_Right_20
*630 PHY_EDGE_ROW_21_Left_49
*631 PHY_EDGE_ROW_21_Right_21
*632 PHY_EDGE_ROW_22_Left_50
*633 PHY_EDGE_ROW_22_Right_22
*634 PHY_EDGE_ROW_23_Left_51
*635 PHY_EDGE_ROW_23_Right_23
*636 PHY_EDGE_ROW_24_Left_52
*637 PHY_EDGE_ROW_24_Right_24
*638 PHY_EDGE_ROW_25_Left_53
*639 PHY_EDGE_ROW_25_Right_25
*640 PHY_EDGE_ROW_26_Left_54
*641 PHY_EDGE_ROW_26_Right_26
*642 PHY_EDGE_ROW_27_Left_55
*643 PHY_EDGE_ROW_27_Right_27
*644 PHY_EDGE_ROW_2_Left_30
*645 PHY_EDGE_ROW_2_Right_2
*646 PHY_EDGE_ROW_3_Left_31
*647 PHY_EDGE_ROW_3_Right_3
*648 PHY_EDGE_ROW_4_Left_32
*649 PHY_EDGE_ROW_4_Right_4
*650 PHY_EDGE_ROW_5_Left_33
*651 PHY_EDGE_ROW_5_Right_5
*652 PHY_EDGE_ROW_6_Left_34
*653 PHY_EDGE_ROW_6_Right_6
*654 PHY_EDGE_ROW_7_Left_35
*655 PHY_EDGE_ROW_7_Right_7
*656 PHY_EDGE_ROW_8_Left_36
*657 PHY_EDGE_ROW_8_Right_8
*658 PHY_EDGE_ROW_9_Left_37
*659 PHY_EDGE_ROW_9_Right_9
*660 TAP_TAPCELL_ROW_0_56
*661 TAP_TAPCELL_ROW_0_57
*662 TAP_TAPCELL_ROW_0_58
*663 TAP_TAPCELL_ROW_0_59
*664 TAP_TAPCELL_ROW_0_60
*665 TAP_TAPCELL_ROW_0_61
*666 TAP_TAPCELL_ROW_10_89
*667 TAP_TAPCELL_ROW_10_90
*668 TAP_TAPCELL_ROW_10_91
*669 TAP_TAPCELL_ROW_11_92
*670 TAP_TAPCELL_ROW_11_93
*671 TAP_TAPCELL_ROW_11_94
*672 TAP_TAPCELL_ROW_12_95
*673 TAP_TAPCELL_ROW_12_96
*674 TAP_TAPCELL_ROW_12_97
*675 TAP_TAPCELL_ROW_13_100
*676 TAP_TAPCELL_ROW_13_98
*677 TAP_TAPCELL_ROW_13_99
*678 TAP_TAPCELL_ROW_14_101
*679 TAP_TAPCELL_ROW_14_102
*680 TAP_TAPCELL_ROW_14_103
*681 TAP_TAPCELL_ROW_15_104
*682 TAP_TAPCELL_ROW_15_105
*683 TAP_TAPCELL_ROW_15_106
*684 TAP_TAPCELL_ROW_16_107
*685 TAP_TAPCELL_ROW_16_108
*686 TAP_TAPCELL_ROW_16_109
*687 TAP_TAPCELL_ROW_17_110
*688 TAP_TAPCELL_ROW_17_111
*689 TAP_TAPCELL_ROW_17_112
*690 TAP_TAPCELL_ROW_18_113
*691 TAP_TAPCELL_ROW_18_114
*692 TAP_TAPCELL_ROW_18_115
*693 TAP_TAPCELL_ROW_19_116
*694 TAP_TAPCELL_ROW_19_117
*695 TAP_TAPCELL_ROW_19_118
*696 TAP_TAPCELL_ROW_1_62
*697 TAP_TAPCELL_ROW_1_63
*698 TAP_TAPCELL_ROW_1_64
*699 TAP_TAPCELL_ROW_20_119
*700 TAP_TAPCELL_ROW_20_120
*701 TAP_TAPCELL_ROW_20_121
*702 TAP_TAPCELL_ROW_21_122
*703 TAP_TAPCELL_ROW_21_123
*704 TAP_TAPCELL_ROW_21_124
*705 TAP_TAPCELL_ROW_22_125
*706 TAP_TAPCELL_ROW_22_126
*707 TAP_TAPCELL_ROW_22_127
*708 TAP_TAPCELL_ROW_23_128
*709 TAP_TAPCELL_ROW_23_129
*710 TAP_TAPCELL_ROW_23_130
*711 TAP_TAPCELL_ROW_24_131
*712 TAP_TAPCELL_ROW_24_132
*713 TAP_TAPCELL_ROW_24_133
*714 TAP_TAPCELL_ROW_25_134
*715 TAP_TAPCELL_ROW_25_135
*716 TAP_TAPCELL_ROW_25_136
*717 TAP_TAPCELL_ROW_26_137
*718 TAP_TAPCELL_ROW_26_138
*719 TAP_TAPCELL_ROW_26_139
*720 TAP_TAPCELL_ROW_27_140
*721 TAP_TAPCELL_ROW_27_141
*722 TAP_TAPCELL_ROW_27_142
*723 TAP_TAPCELL_ROW_27_143
*724 TAP_TAPCELL_ROW_27_144
*725 TAP_TAPCELL_ROW_27_145
*726 TAP_TAPCELL_ROW_2_65
*727 TAP_TAPCELL_ROW_2_66
*728 TAP_TAPCELL_ROW_2_67
*729 TAP_TAPCELL_ROW_3_68
*730 TAP_TAPCELL_ROW_3_69
*731 TAP_TAPCELL_ROW_3_70
*732 TAP_TAPCELL_ROW_4_71
*733 TAP_TAPCELL_ROW_4_72
*734 TAP_TAPCELL_ROW_4_73
*735 TAP_TAPCELL_ROW_5_74
*736 TAP_TAPCELL_ROW_5_75
*737 TAP_TAPCELL_ROW_5_76
*738 TAP_TAPCELL_ROW_6_77
*739 TAP_TAPCELL_ROW_6_78
*740 TAP_TAPCELL_ROW_6_79
*741 TAP_TAPCELL_ROW_7_80
*742 TAP_TAPCELL_ROW_7_81
*743 TAP_TAPCELL_ROW_7_82
*744 TAP_TAPCELL_ROW_8_83
*745 TAP_TAPCELL_ROW_8_84
*746 TAP_TAPCELL_ROW_8_85
*747 TAP_TAPCELL_ROW_9_86
*748 TAP_TAPCELL_ROW_9_87
*749 TAP_TAPCELL_ROW_9_88
*750 _18_
*751 _19_
*752 _20_
*753 _21_
*754 _22_
*755 _23_
*756 _24_
*757 _25_
*758 _26_
*759 _27_
*760 _28_
*761 _29_
*762 _30_
*763 _31_
*764 _32_
*765 _33_
*766 _34_
*767 _35_
*768 _36_
*769 _37_
*770 _38_
*771 _39_
*772 _40_
*773 _41_
*774 _42_
*775 _43_
*776 _44_
*777 clkbuf_0_clk
*778 clkbuf_1_0__f_clk
*779 clkbuf_1_1__f_clk
*780 hold1
*781 hold2
*782 hold3
*783 hold4
*784 hold5
*785 hold6
*786 hold7
*787 input1
*788 input2
*789 output10
*790 output11
*791 output3
*792 output4
*793 output5
*794 output6
*795 output7
*796 output8
*797 output9

*PORTS
clk I
count[0] O
count[1] O
count[2] O
count[3] O
count[4] O
count[5] O
count[6] O
count[7] O
enable I
overflow O
rst_n I

*D_NET *3 0.00676712
*CONN
*P clk I
*I *777:A I *D sky130_fd_sc_hd__clkbuf_16
*CAP
1 clk 0.00320352
2 *777:A 0
3 *3:15 0.00320352
4 *3:15 count[3] 8.97484e-05
5 *3:15 *794:A 0.000270324
6 *3:15 *50:69 0
7 *3:15 *52:20 0
*RES
1 clk *3:15 42.8764 
2 *3:15 *777:A 23 
*END

*D_NET *4 0.000935434
*CONN
*P count[0] O
*I *791:X O *D sky130_fd_sc_hd__buf_2
*CAP
1 count[0] 0.000467717
2 *791:X 0.000467717
3 count[0] *787:A 0
*RES
1 *791:X count[0] 47.0936 
*END

*D_NET *5 0.000561164
*CONN
*P count[1] O
*I *792:X O *D sky130_fd_sc_hd__buf_2
*CAP
1 count[1] 0.000280582
2 *792:X 0.000280582
3 count[1] count[2] 0
*RES
1 *792:X count[1] 47.5169 
*END

*D_NET *6 0.000679783
*CONN
*P count[2] O
*I *793:X O *D sky130_fd_sc_hd__buf_2
*CAP
1 count[2] 0.000339892
2 *793:X 0.000339892
3 count[1] count[2] 0
*RES
1 *793:X count[2] 48.5734 
*END

*D_NET *7 0.00065006
*CONN
*P count[3] O
*I *794:X O *D sky130_fd_sc_hd__buf_2
*CAP
1 count[3] 0.000280156
2 *794:X 0.000280156
3 *3:15 count[3] 8.97484e-05
*RES
1 *794:X count[3] 48.5734 
*END

*D_NET *8 0.00119684
*CONN
*P count[4] O
*I *795:X O *D sky130_fd_sc_hd__buf_2
*CAP
1 count[4] 0.00059842
2 *795:X 0.00059842
*RES
1 *795:X count[4] 49.6829 
*END

*D_NET *9 0.000627068
*CONN
*P count[5] O
*I *796:X O *D sky130_fd_sc_hd__buf_2
*CAP
1 count[5] 0.000313534
2 *796:X 0.000313534
*RES
1 *796:X count[5] 47.955 
*END

*D_NET *10 0.000713916
*CONN
*P count[6] O
*I *797:X O *D sky130_fd_sc_hd__buf_2
*CAP
1 count[6] 0.000356958
2 *797:X 0.000356958
*RES
1 *797:X count[6] 48.6592 
*END

*D_NET *11 0.000718957
*CONN
*P count[7] O
*I *789:X O *D sky130_fd_sc_hd__buf_2
*CAP
1 count[7] 0.000311223
2 *789:X 0.000311223
3 count[7] overflow 9.65101e-05
*RES
1 *789:X count[7] 48.6592 
*END

*D_NET *12 0.000910164
*CONN
*P enable I
*I *787:A I *D sky130_fd_sc_hd__buf_1
*CAP
1 enable 0.000452766
2 *787:A 0.000452766
3 *787:A *47:32 4.6318e-06
4 count[0] *787:A 0
*RES
1 enable *787:A 47.3214 
*END

*D_NET *13 0.000644047
*CONN
*P overflow O
*I *790:X O *D sky130_fd_sc_hd__buf_2
*CAP
1 overflow 0.000273768
2 *790:X 0.000273768
3 count[7] overflow 9.65101e-05
*RES
1 *790:X overflow 47.955 
*END

*D_NET *14 0.000931334
*CONN
*P rst_n I
*I *788:A I *D sky130_fd_sc_hd__clkbuf_4
*CAP
1 rst_n 0.000465667
2 *788:A 0.000465667
*RES
1 rst_n *788:A 47.4457 
*END

*D_NET *15 0.00128388
*CONN
*I *769:D I *D sky130_fd_sc_hd__dfrtp_1
*I *757:X O *D sky130_fd_sc_hd__xor2_1
*CAP
1 *769:D 0
2 *757:X 0.000641939
3 *15:10 0.000641939
4 *15:10 *35:16 0
*RES
1 *757:X *15:10 48.9786 
2 *15:10 *769:D 38 
*END

*D_NET *16 0.00084161
*CONN
*I *770:D I *D sky130_fd_sc_hd__dfrtp_1
*I *759:Y O *D sky130_fd_sc_hd__nor2_1
*CAP
1 *770:D 0
2 *759:Y 0.00029406
3 *16:10 0.00029406
4 *16:10 *770:RESET_B 0
5 *16:10 *23:10 7.76364e-06
6 *16:10 *29:10 8.4047e-05
7 *16:10 *34:27 0.000120816
8 *16:10 *45:10 4.08641e-05
*RES
1 *759:Y *16:10 42.9921 
2 *16:10 *770:D 38 
*END

*D_NET *17 0.000504974
*CONN
*I *771:D I *D sky130_fd_sc_hd__dfrtp_1
*I *761:Y O *D sky130_fd_sc_hd__nor2_1
*CAP
1 *771:D 6.63519e-05
2 *761:Y 6.63519e-05
3 *771:D *751:C 0.000274078
4 *771:D *761:A 5.67058e-05
5 *771:D *771:CLK 3.53115e-05
6 *771:D *48:49 6.17437e-06
*RES
1 *761:Y *771:D 49.0036 
*END

*D_NET *18 0.000883562
*CONN
*I *772:D I *D sky130_fd_sc_hd__dfrtp_1
*I *763:X O *D sky130_fd_sc_hd__and2_1
*CAP
1 *772:D 0
2 *763:X 0.000227852
3 *18:10 0.000227852
4 *18:10 *762:B 1.32939e-05
5 *18:10 *763:B 3.22879e-05
6 *18:10 *34:61 2.93747e-05
7 *18:10 *50:33 0.000283913
8 *18:10 *50:48 6.89881e-05
9 *18:10 *50:63 0
*RES
1 *763:X *18:10 28.5514 
2 *18:10 *772:D 23 
*END

*D_NET *19 0.000434052
*CONN
*I *773:D I *D sky130_fd_sc_hd__dfrtp_1
*I *764:Y O *D sky130_fd_sc_hd__xnor2_1
*CAP
1 *773:D 0
2 *764:Y 0.000167786
3 *19:10 0.000167786
4 *19:10 *25:20 0
5 *19:10 *46:51 9.84794e-05
*RES
1 *764:Y *19:10 40.6514 
2 *19:10 *773:D 38 
*END

*D_NET *20 0.00059737
*CONN
*I *774:D I *D sky130_fd_sc_hd__dfrtp_1
*I *766:X O *D sky130_fd_sc_hd__and2b_1
*CAP
1 *774:D 0
2 *766:X 0.00024541
3 *20:10 0.00024541
4 *20:10 *51:49 0
5 *20:10 *52:12 0.00010655
*RES
1 *766:X *20:10 41.9564 
2 *20:10 *774:D 38 
*END

*D_NET *21 0.00109931
*CONN
*I *775:D I *D sky130_fd_sc_hd__dfrtp_1
*I *767:X O *D sky130_fd_sc_hd__xor2_1
*CAP
1 *775:D 0
2 *767:X 0.000326515
3 *21:10 0.000326515
4 *21:10 *774:RESET_B 0
5 *21:10 *40:6 0.000446275
6 *21:10 *46:110 0
*RES
1 *767:X *21:10 45.5193 
2 *21:10 *775:D 38 
*END

*D_NET *22 0.000466887
*CONN
*I *776:D I *D sky130_fd_sc_hd__dfrtp_1
*I *768:X O *D sky130_fd_sc_hd__xor2_1
*CAP
1 *776:D 0
2 *768:X 0.000233443
3 *22:10 0.000233443
4 *22:10 *768:B 0
*RES
1 *768:X *22:10 41.7079 
2 *22:10 *776:D 38 
*END

*D_NET *23 0.00148689
*CONN
*I *759:A I *D sky130_fd_sc_hd__nor2_1
*I *760:B I *D sky130_fd_sc_hd__nor2_1
*I *750:X O *D sky130_fd_sc_hd__and3_1
*CAP
1 *759:A 0
2 *760:B 6.96638e-05
3 *750:X 0.000283586
4 *23:12 6.96638e-05
5 *23:10 0.000283586
6 *760:B *751:C 9.4713e-05
7 *760:B *761:A 0.000139352
8 *760:B *24:10 5.3304e-05
9 *23:10 *24:25 3.47781e-05
10 *23:10 *29:10 0.000133123
11 *23:10 *34:8 6.7177e-06
12 *23:10 *48:25 0.000310641
13 *16:10 *23:10 7.76364e-06
*RES
1 *750:X *23:10 44.09 
2 *23:10 *23:12 15 
3 *23:12 *760:B 25.0507 
4 *23:12 *759:A 23 
*END

*D_NET *24 0.0108807
*CONN
*I *752:B I *D sky130_fd_sc_hd__nand2_1
*I *762:B I *D sky130_fd_sc_hd__or2_1
*I *754:B I *D sky130_fd_sc_hd__and3_1
*I *765:A3 I *D sky130_fd_sc_hd__a31o_1
*I *755:C I *D sky130_fd_sc_hd__and4_1
*I *761:A I *D sky130_fd_sc_hd__nor2_1
*I *751:X O *D sky130_fd_sc_hd__and4_1
*CAP
1 *752:B 5.67072e-05
2 *762:B 0.000405579
3 *754:B 7.70338e-05
4 *765:A3 0.000225235
5 *755:C 0.00044357
6 *761:A 0.000115267
7 *751:X 0.000273265
8 *24:64 0.000528736
9 *24:31 0.000668805
10 *24:29 0.00137838
11 *24:25 0.00197394
12 *24:10 0.000994678
13 *752:B *34:43 6.16531e-05
14 *752:B *34:61 0
15 *754:B *50:86 1.6635e-05
16 *755:C *755:B 4.37033e-05
17 *755:C *755:D 0.000248705
18 *755:C *26:10 0
19 *755:C *27:12 2.76611e-06
20 *755:C *50:69 6.01596e-05
21 *755:C *50:86 0
22 *761:A *751:C 2.45645e-05
23 *761:A *761:B 0.000167474
24 *761:A *771:CLK 0.000431557
25 *761:A *34:27 9.84851e-05
26 *762:B *34:61 0.000446275
27 *762:B *50:33 1.76557e-05
28 *762:B *50:48 1.30422e-05
29 *765:A3 *765:A1 6.68793e-05
30 *765:A3 *27:12 0.000104536
31 *765:A3 *50:69 0.000100533
32 *765:A3 *51:21 0
33 *24:10 *751:C 0.000280357
34 *24:10 *751:D 5.50049e-05
35 *24:10 *757:B 5.50106e-05
36 *24:10 *34:27 0.000297416
37 *24:25 *34:8 0.000300218
38 *24:25 *34:43 0.000439085
39 *24:29 *50:69 2.38288e-05
40 *24:29 *50:86 2.45549e-06
41 *24:64 *34:43 8.4047e-05
42 *760:B *761:A 0.000139352
43 *760:B *24:10 5.3304e-05
44 *771:D *761:A 5.67058e-05
45 *18:10 *762:B 1.32939e-05
46 *23:10 *24:25 3.47781e-05
*RES
1 *751:X *24:10 30.8093 
2 *24:10 *761:A 29.5043 
3 *24:10 *24:25 30.2871 
4 *24:25 *24:29 31.82 
5 *24:29 *24:31 15 
6 *24:31 *755:C 48.1707 
7 *24:31 *765:A3 42.7229 
8 *24:29 *754:B 24.0979 
9 *24:25 *24:64 1.20143 
10 *24:64 *762:B 45.0636 
11 *24:64 *752:B 39.2014 
*END

*D_NET *25 0.000486545
*CONN
*I *764:B I *D sky130_fd_sc_hd__xnor2_1
*I *763:A I *D sky130_fd_sc_hd__and2_1
*I *752:Y O *D sky130_fd_sc_hd__nand2_1
*CAP
1 *764:B 0
2 *763:A 1.31697e-05
3 *752:Y 0.000152452
4 *25:20 0.000139282
5 *763:A *34:61 0.00010018
6 *763:A *50:48 5.67058e-05
7 *763:A *50:63 2.4754e-05
8 *25:20 *46:51 0
9 *19:10 *25:20 0
*RES
1 *752:Y *763:A 47.0979 
2 *752:Y *25:20 40.2579 
3 *25:20 *764:B 38 
*END

*D_NET *26 0.00186092
*CONN
*I *754:C I *D sky130_fd_sc_hd__and3_1
*I *755:D I *D sky130_fd_sc_hd__and4_1
*I *753:X O *D sky130_fd_sc_hd__and2_1
*CAP
1 *754:C 5.09905e-05
2 *755:D 0.000416975
3 *753:X 0.000226833
4 *26:10 0.000694798
5 *754:C *767:B 6.17437e-06
6 *754:C *27:12 1.14762e-05
7 *754:C *50:86 8.73604e-05
8 *755:D *755:B 1.76557e-05
9 *26:10 *27:12 8.4047e-05
10 *26:10 *51:21 1.59094e-05
11 *755:C *755:D 0.000248705
12 *755:C *26:10 0
*RES
1 *753:X *26:10 40.8793 
2 *26:10 *755:D 44.3386 
3 *26:10 *754:C 39.4293 
*END

*D_NET *27 0.00138213
*CONN
*I *767:B I *D sky130_fd_sc_hd__xor2_1
*I *766:A_N I *D sky130_fd_sc_hd__and2b_1
*I *754:X O *D sky130_fd_sc_hd__and3_1
*CAP
1 *767:B 0.000253843
2 *766:A_N 0
3 *754:X 0
4 *27:12 0.000206466
5 *27:4 0.000460309
6 *767:B *50:86 8.2832e-05
7 *27:12 *51:21 0.000169683
8 *754:C *767:B 6.17437e-06
9 *754:C *27:12 1.14762e-05
10 *755:C *27:12 2.76611e-06
11 *765:A3 *27:12 0.000104536
12 *26:10 *27:12 8.4047e-05
*RES
1 *754:X *27:4 23 
2 *27:4 *27:12 34.9921 
3 *27:12 *766:A_N 23 
4 *27:4 *767:B 28.2821 
*END

*D_NET *28 0.00290669
*CONN
*I *756:B I *D sky130_fd_sc_hd__and2_1
*I *768:B I *D sky130_fd_sc_hd__xor2_1
*I *755:X O *D sky130_fd_sc_hd__and4_1
*CAP
1 *756:B 0
2 *768:B 0.000392219
3 *755:X 0.0003125
4 *28:10 0.000946018
5 *28:8 0.000866299
6 *768:B *768:A 0.000141954
7 *768:B *35:16 0
8 *768:B *46:110 0
9 *28:8 *755:B 0.000247704
10 *28:10 *35:16 0
11 *28:10 *46:110 0
12 *22:10 *768:B 0
*RES
1 *755:X *28:8 42.9093 
2 *28:8 *28:10 10.3571 
3 *28:10 *768:B 45.7057 
4 *28:10 *756:B 38 
*END

*D_NET *29 0.000515404
*CONN
*I *759:B I *D sky130_fd_sc_hd__nor2_1
*I *758:Y O *D sky130_fd_sc_hd__a21oi_1
*CAP
1 *759:B 0
2 *758:Y 0.000149117
3 *29:10 0.000149117
4 *29:10 *48:31 0
5 *16:10 *29:10 8.4047e-05
6 *23:10 *29:10 0.000133123
*RES
1 *758:Y *29:10 40.8793 
2 *29:10 *759:B 38 
*END

*D_NET *30 0.000574578
*CONN
*I *761:B I *D sky130_fd_sc_hd__nor2_1
*I *760:Y O *D sky130_fd_sc_hd__nor2_1
*CAP
1 *761:B 6.78145e-05
2 *760:Y 6.78145e-05
3 *761:B *751:C 0.000271476
4 *761:A *761:B 0.000167474
*RES
1 *760:Y *761:B 49.5007 
*END

*D_NET *31 0.000257244
*CONN
*I *763:B I *D sky130_fd_sc_hd__and2_1
*I *762:X O *D sky130_fd_sc_hd__or2_1
*CAP
1 *763:B 4.06507e-05
2 *762:X 4.06507e-05
3 *763:B *50:48 0.000143655
4 *18:10 *763:B 3.22879e-05
*RES
1 *762:X *763:B 47.5743 
*END

*D_NET *32 0.000348981
*CONN
*I *766:B I *D sky130_fd_sc_hd__and2b_1
*I *765:X O *D sky130_fd_sc_hd__a31o_1
*CAP
1 *766:B 8.0926e-05
2 *765:X 8.0926e-05
3 *766:B *52:12 0.000187129
*RES
1 *765:X *766:B 48.0507 
*END

*D_NET *33 0.00214049
*CONN
*I *779:A I *D sky130_fd_sc_hd__clkbuf_16
*I *778:A I *D sky130_fd_sc_hd__clkbuf_16
*I *777:X O *D sky130_fd_sc_hd__clkbuf_16
*CAP
1 *779:A 0.000341721
2 *778:A 0.000602327
3 *777:X 0.000126199
4 *33:10 0.000944048
5 *33:8 0.000126199
*RES
1 *777:X *33:8 40.2579 
2 *33:8 *33:10 15 
3 *33:10 *778:A 34.1029 
4 *33:10 *779:A 29.3386 
*END

*D_NET *34 0.00670151
*CONN
*I *773:CLK I *D sky130_fd_sc_hd__dfrtp_1
*I *772:CLK I *D sky130_fd_sc_hd__dfrtp_1
*I *770:CLK I *D sky130_fd_sc_hd__dfrtp_1
*I *771:CLK I *D sky130_fd_sc_hd__dfrtp_1
*I *778:X O *D sky130_fd_sc_hd__clkbuf_16
*CAP
1 *773:CLK 0
2 *772:CLK 0
3 *770:CLK 0
4 *771:CLK 0.000262717
5 *778:X 0.000726434
6 *34:61 0.000287631
7 *34:45 0.000287631
8 *34:43 0.000386133
9 *34:27 0.000439205
10 *34:10 0.000701922
11 *34:8 0.000340301
12 *34:8 *41:10 3.884e-05
13 *34:27 *751:A 0.000207507
14 *34:27 *45:10 8.62876e-05
15 *34:27 *47:26 0.000162422
16 *34:61 *46:36 0
17 *34:61 *50:33 3.76761e-05
18 *34:61 *50:48 0.0002635
19 *34:61 *50:63 2.21639e-05
20 *752:B *34:43 6.16531e-05
21 *752:B *34:61 0
22 *761:A *771:CLK 0.000431557
23 *761:A *34:27 9.84851e-05
24 *762:B *34:61 0.000446275
25 *763:A *34:61 0.00010018
26 *771:D *771:CLK 3.53115e-05
27 *16:10 *34:27 0.000120816
28 *18:10 *34:61 2.93747e-05
29 *23:10 *34:8 6.7177e-06
30 *24:10 *34:27 0.000297416
31 *24:25 *34:8 0.000300218
32 *24:25 *34:43 0.000439085
33 *24:64 *34:43 8.4047e-05
*RES
1 *778:X *34:8 46.2443 
2 *34:8 *34:10 15 
3 *34:10 *771:CLK 29.3593 
4 *34:10 *34:27 39.5079 
5 *34:27 *770:CLK 23 
6 *778:X *34:43 46.1614 
7 *34:43 *34:45 15 
8 *34:45 *34:61 38.7207 
9 *34:61 *772:CLK 23 
10 *34:45 *773:CLK 23 
*END

*D_NET *35 0.00553649
*CONN
*I *774:CLK I *D sky130_fd_sc_hd__dfrtp_1
*I *775:CLK I *D sky130_fd_sc_hd__dfrtp_1
*I *776:CLK I *D sky130_fd_sc_hd__dfrtp_1
*I *769:CLK I *D sky130_fd_sc_hd__dfrtp_1
*I *779:X O *D sky130_fd_sc_hd__clkbuf_16
*CAP
1 *774:CLK 0
2 *775:CLK 0.000142452
3 *776:CLK 0
4 *769:CLK 0.000119545
5 *779:X 0.000453494
6 *35:47 0.00090906
7 *35:30 0.0012051
8 *35:16 0.000792192
9 *35:8 0.00127973
10 *769:CLK *776:RESET_B 0.000111308
11 *775:CLK *755:B 0.000359332
12 *35:47 *50:86 0
13 *35:47 *51:49 0.000164282
14 *768:B *35:16 0
15 *15:10 *35:16 0
16 *28:10 *35:16 0
*RES
1 *779:X *35:8 43.8621 
2 *35:8 *35:16 27.8843 
3 *35:16 *769:CLK 26.0036 
4 *35:16 *776:CLK 23 
5 *35:8 *35:30 2.25786 
6 *35:30 *775:CLK 41.9564 
7 *35:30 *35:47 30.1629 
8 *35:47 *774:CLK 23 
*END

*D_NET *36 0.00448782
*CONN
*I *757:B I *D sky130_fd_sc_hd__xor2_1
*I *751:D I *D sky130_fd_sc_hd__and4_1
*I *750:C I *D sky130_fd_sc_hd__and3_1
*I *758:A2 I *D sky130_fd_sc_hd__a21oi_1
*I *787:X O *D sky130_fd_sc_hd__buf_1
*CAP
1 *757:B 0.000173766
2 *751:D 2.79296e-05
3 *750:C 0
4 *758:A2 0.000148308
5 *787:X 0
6 *36:30 0.000407891
7 *36:12 0.000241913
8 *36:8 0.00168452
9 *36:6 0.00138472
10 *758:A2 *47:24 9.09243e-05
11 *758:A2 *48:25 1.21972e-05
12 *36:8 *47:26 0
13 *36:8 *47:32 0
14 *36:12 *47:20 4.17736e-05
15 *36:12 *47:24 0.000107741
16 *36:30 *751:A 0
17 *36:30 *44:10 0
18 *36:30 *48:31 5.61311e-05
19 *24:10 *751:D 5.50049e-05
20 *24:10 *757:B 5.50106e-05
*RES
1 *787:X *36:6 38 
2 *36:6 *36:8 26.5557 
3 *36:8 *36:12 16.6571 
4 *36:12 *758:A2 25.3407 
5 *36:12 *750:C 23 
6 *36:8 *36:30 19.0186 
7 *36:30 *751:D 23.6214 
8 *36:30 *757:B 26.5007 
*END

*D_NET *37 0.00392324
*CONN
*I *789:A I *D sky130_fd_sc_hd__buf_2
*I *780:A I *D sky130_fd_sc_hd__dlygate4sd3_1
*I *756:A I *D sky130_fd_sc_hd__and2_1
*I *776:Q O *D sky130_fd_sc_hd__dfrtp_1
*CAP
1 *789:A 0
2 *780:A 0.000366051
3 *756:A 0
4 *776:Q 0
5 *37:37 0.000986718
6 *37:33 0.00112834
7 *37:12 0.000382297
8 *37:4 0.000606724
9 *37:12 *38:6 0.000356724
10 *37:12 *46:110 9.63815e-05
11 *37:33 *39:8 0
*RES
1 *776:Q *37:4 23 
2 *37:4 *37:12 38.4721 
3 *37:12 *756:A 23 
4 *37:4 *780:A 26.9564 
5 *780:A *37:33 40.61 
6 *37:33 *37:37 33.2493 
7 *37:37 *789:A 23 
*END

*D_NET *38 0.00362376
*CONN
*I *790:A I *D sky130_fd_sc_hd__buf_2
*I *756:X O *D sky130_fd_sc_hd__and2_1
*CAP
1 *790:A 0
2 *756:X 0.00149186
3 *38:12 0.000141654
4 *38:6 0.00163352
5 *37:12 *38:6 0.000356724
*RES
1 *756:X *38:6 49.3486 
2 *38:6 *38:12 32.61 
3 *38:12 *790:A 23 
*END

*D_NET *39 0.00116723
*CONN
*I *768:A I *D sky130_fd_sc_hd__xor2_1
*I *780:X O *D sky130_fd_sc_hd__dlygate4sd3_1
*CAP
1 *768:A 0.000401866
2 *780:X 0.000110774
3 *39:8 0.00051264
4 *768:B *768:A 0.000141954
5 *37:33 *39:8 0
*RES
1 *780:X *39:8 39.9057 