*SPEF "ieee 1481-1999"
*DESIGN "counter"
*DATE "19:45:58 Thursday June 26, 2025"
*VENDOR "The OpenROAD Project"
*PROGRAM "OpenROAD"
*VERSION "2.0-unstable-2025-03-01_e794373d44ac5421f0633d8dda7e5c59e8fe79bf"
*DESIGN_FLOW "NAME_SCOPE LOCAL" "PIN_CAP NONE"
*DIVIDER /
*DELIMITER :
*BUS_DELIMITER []
*T_UNIT 1 NS
*C_UNIT 1 PF
*R_UNIT 1 OHM
*L_UNIT 1 HENRY

*NAME_MAP
*3 clk
*4 count[0]
*5 count[1]
*6 count[2]
*7 count[3]
*8 count[4]
*9 count[5]
*10 count[6]
*11 count[7]
*12 enable
*13 overflow
*14 rst_n
*15 _00_
*16 _01_
*17 _02_
*18 _03_
*19 _04_
*20 _05_
*21 _06_
*22 _07_
*23 _08_
*24 _09_
*25 _10_
*26 _11_
*27 _12_
*28 _13_
*29 _14_
*30 _15_
*31 _16_
*32 _17_
*33 clknet_0_clk
*34 clknet_1_0__leaf_clk
*35 clknet_1_1__leaf_clk
*36 net1
*37 net10
*38 net11
*39 net12
*40 net13
*41 net14
*42 net15
*43 net16
*44 net17
*45 net18
*46 net2
*47 net3
*48 net4
*49 net5
*50 net6
*51 net7
*52 net8
*53 net9
*54 FILLER_0_109
*55 FILLER_0_113
*56 FILLER_0_125
*57 FILLER_0_137
*58 FILLER_0_141
*59 FILLER_0_15
*60 FILLER_0_153
*61 FILLER_0_165
*62 FILLER_0_169
*63 FILLER_0_181
*64 FILLER_0_189
*65 FILLER_0_27
*66 FILLER_0_29
*67 FILLER_0_3
*68 FILLER_0_41
*69 FILLER_0_53
*70 FILLER_0_57
*71 FILLER_0_65
*72 FILLER_0_77
*73 FILLER_0_83
*74 FILLER_0_85
*75 FILLER_0_97
*76 FILLER_10_115
*77 FILLER_10_119
*78 FILLER_10_149
*79 FILLER_10_15
*80 FILLER_10_161
*81 FILLER_10_173
*82 FILLER_10_185
*83 FILLER_10_27
*84 FILLER_10_29
*85 FILLER_10_3
*86 FILLER_10_41
*87 FILLER_10_53
*88 FILLER_10_82
*89 FILLER_10_85
*90 FILLER_11_106
*91 FILLER_11_113
*92 FILLER_11_125
*93 FILLER_11_132
*94 FILLER_11_144
*95 FILLER_11_156
*96 FILLER_11_169
*97 FILLER_11_181
*98 FILLER_11_189
*99 FILLER_11_19
*100 FILLER_11_31
*101 FILLER_11_35
*102 FILLER_11_60
*103 FILLER_11_67
*104 FILLER_11_7
*105 FILLER_11_73
*106 FILLER_11_84
*107 FILLER_11_94
*108 FILLER_12_109
*109 FILLER_12_121
*110 FILLER_12_133
*111 FILLER_12_139
*112 FILLER_12_141
*113 FILLER_12_15
*114 FILLER_12_153
*115 FILLER_12_165
*116 FILLER_12_177
*117 FILLER_12_189
*118 FILLER_12_27
*119 FILLER_12_29
*120 FILLER_12_3
*121 FILLER_12_41
*122 FILLER_12_49
*123 FILLER_12_59
*124 FILLER_12_71
*125 FILLER_12_83
*126 FILLER_12_85
*127 FILLER_12_97
*128 FILLER_13_105
*129 FILLER_13_111
*130 FILLER_13_113
*131 FILLER_13_125
*132 FILLER_13_137
*133 FILLER_13_149
*134 FILLER_13_15
*135 FILLER_13_161
*136 FILLER_13_167
*137 FILLER_13_169
*138 FILLER_13_181
*139 FILLER_13_189
*140 FILLER_13_27
*141 FILLER_13_3
*142 FILLER_13_39
*143 FILLER_13_51
*144 FILLER_13_55
*145 FILLER_13_57
*146 FILLER_13_69
*147 FILLER_13_81
*148 FILLER_13_93
*149 FILLER_14_109
*150 FILLER_14_117
*151 FILLER_14_139
*152 FILLER_14_141
*153 FILLER_14_153
*154 FILLER_14_165
*155 FILLER_14_177
*156 FILLER_14_185
*157 FILLER_14_19
*158 FILLER_14_27
*159 FILLER_14_29
*160 FILLER_14_41
*161 FILLER_14_53
*162 FILLER_14_61
*163 FILLER_14_7
*164 FILLER_14_85
*165 FILLER_14_97
*166 FILLER_15_120
*167 FILLER_15_128
*168 FILLER_15_149
*169 FILLER_15_15
*170 FILLER_15_161
*171 FILLER_15_167
*172 FILLER_15_169
*173 FILLER_15_181
*174 FILLER_15_189
*175 FILLER_15_27
*176 FILLER_15_3
*177 FILLER_15_39
*178 FILLER_15_51
*179 FILLER_15_55
*180 FILLER_15_57
*181 FILLER_15_69
*182 FILLER_15_81
*183 FILLER_15_89
*184 FILLER_16_103
*185 FILLER_16_109
*186 FILLER_16_115
*187 FILLER_16_123
*188 FILLER_16_135
*189 FILLER_16_139
*190 FILLER_16_149
*191 FILLER_16_15
*192 FILLER_16_161
*193 FILLER_16_173
*194 FILLER_16_185
*195 FILLER_16_189
*196 FILLER_16_27
*197 FILLER_16_29
*198 FILLER_16_3
*199 FILLER_16_41
*200 FILLER_16_53
*201 FILLER_16_65
*202 FILLER_16_77
*203 FILLER_16_83
*204 FILLER_16_85
*205 FILLER_16_97
*206 FILLER_17_102
*207 FILLER_17_108
*208 FILLER_17_113
*209 FILLER_17_125
*210 FILLER_17_137
*211 FILLER_17_149
*212 FILLER_17_15
*213 FILLER_17_161
*214 FILLER_17_167
*215 FILLER_17_169
*216 FILLER_17_181
*217 FILLER_17_189
*218 FILLER_17_27
*219 FILLER_17_3
*220 FILLER_17_35
*221 FILLER_17_90
*222 FILLER_18_113
*223 FILLER_18_125
*224 FILLER_18_137
*225 FILLER_18_141
*226 FILLER_18_15
*227 FILLER_18_153
*228 FILLER_18_165
*229 FILLER_18_177
*230 FILLER_18_189
*231 FILLER_18_27
*232 FILLER_18_29
*233 FILLER_18_3
*234 FILLER_18_41
*235 FILLER_18_53
*236 FILLER_18_72
*237 FILLER_18_93
*238 FILLER_18_99
*239 FILLER_19_105
*240 FILLER_19_111
*241 FILLER_19_133
*242 FILLER_19_145
*243 FILLER_19_157
*244 FILLER_19_165
*245 FILLER_19_169
*246 FILLER_19_181
*247 FILLER_19_189
*248 FILLER_19_19
*249 FILLER_19_31
*250 FILLER_19_43
*251 FILLER_19_55
*252 FILLER_19_57
*253 FILLER_19_69
*254 FILLER_19_7
*255 FILLER_19_81
*256 FILLER_19_93
*257 FILLER_1_105
*258 FILLER_1_111
*259 FILLER_1_113
*260 FILLER_1_125
*261 FILLER_1_137
*262 FILLER_1_149
*263 FILLER_1_15
*264 FILLER_1_161
*265 FILLER_1_167
*266 FILLER_1_169
*267 FILLER_1_181
*268 FILLER_1_189
*269 FILLER_1_27
*270 FILLER_1_3
*271 FILLER_1_39
*272 FILLER_1_51
*273 FILLER_1_55
*274 FILLER_1_57
*275 FILLER_1_69
*276 FILLER_1_81
*277 FILLER_1_93
*278 FILLER_20_109
*279 FILLER_20_121
*280 FILLER_20_133
*281 FILLER_20_139
*282 FILLER_20_141
*283 FILLER_20_15
*284 FILLER_20_153
*285 FILLER_20_165
*286 FILLER_20_177
*287 FILLER_20_185
*288 FILLER_20_27
*289 FILLER_20_29
*290 FILLER_20_3
*291 FILLER_20_41
*292 FILLER_20_53
*293 FILLER_20_65
*294 FILLER_20_77
*295 FILLER_20_83
*296 FILLER_20_85
*297 FILLER_20_97
*298 FILLER_21_105
*299 FILLER_21_111
*300 FILLER_21_113
*301 FILLER_21_125
*302 FILLER_21_137
*303 FILLER_21_149
*304 FILLER_21_15
*305 FILLER_21_161
*306 FILLER_21_167
*307 FILLER_21_169
*308 FILLER_21_181
*309 FILLER_21_189
*310 FILLER_21_27
*311 FILLER_21_3
*312 FILLER_21_39
*313 FILLER_21_51
*314 FILLER_21_55
*315 FILLER_21_57
*316 FILLER_21_69
*317 FILLER_21_81
*318 FILLER_21_93
*319 FILLER_22_109
*320 FILLER_22_121
*321 FILLER_22_133
*322 FILLER_22_139
*323 FILLER_22_141
*324 FILLER_22_15
*325 FILLER_22_153
*326 FILLER_22_165
*327 FILLER_22_177
*328 FILLER_22_189
*329 FILLER_22_27
*330 FILLER_22_29
*331 FILLER_22_3
*332 FILLER_22_41
*333 FILLER_22_53
*334 FILLER_22_65
*335 FILLER_22_77
*336 FILLER_22_83
*337 FILLER_22_85
*338 FILLER_22_97
*339 FILLER_23_105
*340 FILLER_23_111
*341 FILLER_23_113
*342 FILLER_23_125
*343 FILLER_23_137
*344 FILLER_23_149
*345 FILLER_23_15
*346 FILLER_23_161
*347 FILLER_23_167
*348 FILLER_23_169
*349 FILLER_23_181
*350 FILLER_23_189
*351 FILLER_23_27
*352 FILLER_23_3
*353 FILLER_23_39
*354 FILLER_23_51
*355 FILLER_23_55
*356 FILLER_23_57
*357 FILLER_23_69
*358 FILLER_23_81
*359 FILLER_23_93
*360 FILLER_24_109
*361 FILLER_24_121
*362 FILLER_24_133
*363 FILLER_24_139
*364 FILLER_24_141
*365 FILLER_24_15
*366 FILLER_24_153
*367 FILLER_24_165
*368 FILLER_24_177
*369 FILLER_24_189
*370 FILLER_24_27
*371 FILLER_24_29
*372 FILLER_24_3
*373 FILLER_24_41
*374 FILLER_24_53
*375 FILLER_24_65
*376 FILLER_24_77
*377 FILLER_24_83
*378 FILLER_24_85
*379 FILLER_24_97
*380 FILLER_25_105
*381 FILLER_25_111
*382 FILLER_25_113
*383 FILLER_25_125
*384 FILLER_25_137
*385 FILLER_25_149
*386 FILLER_25_15
*387 FILLER_25_161
*388 FILLER_25_167
*389 FILLER_25_169
*390 FILLER_25_181
*391 FILLER_25_189
*392 FILLER_25_27
*393 FILLER_25_3
*394 FILLER_25_39
*395 FILLER_25_51
*396 FILLER_25_55
*397 FILLER_25_57
*398 FILLER_25_69
*399 FILLER_25_81
*400 FILLER_25_93
*401 FILLER_26_109
*402 FILLER_26_121
*403 FILLER_26_133
*404 FILLER_26_139
*405 FILLER_26_141
*406 FILLER_26_15
*407 FILLER_26_153
*408 FILLER_26_165
*409 FILLER_26_177
*410 FILLER_26_189
*411 FILLER_26_27
*412 FILLER_26_29
*413 FILLER_26_3
*414 FILLER_26_41
*415 FILLER_26_53
*416 FILLER_26_65
*417 FILLER_26_77
*418 FILLER_26_83
*419 FILLER_26_85
*420 FILLER_26_97
*421 FILLER_27_109
*422 FILLER_27_113
*423 FILLER_27_121
*424 FILLER_27_126
*425 FILLER_27_138
*426 FILLER_27_141
*427 FILLER_27_15
*428 FILLER_27_153
*429 FILLER_27_165
*430 FILLER_27_169
*431 FILLER_27_181
*432 FILLER_27_189
*433 FILLER_27_27
*434 FILLER_27_29
*435 FILLER_27_3
*436 FILLER_27_41
*437 FILLER_27_53
*438 FILLER_27_57
*439 FILLER_27_69
*440 FILLER_27_81
*441 FILLER_27_85
*442 FILLER_27_97
*443 FILLER_2_109
*444 FILLER_2_121
*445 FILLER_2_133
*446 FILLER_2_139
*447 FILLER_2_141
*448 FILLER_2_15
*449 FILLER_2_153
*450 FILLER_2_165
*451 FILLER_2_177
*452 FILLER_2_189
*453 FILLER_2_27
*454 FILLER_2_29
*455 FILLER_2_3
*456 FILLER_2_41
*457 FILLER_2_53
*458 FILLER_2_65
*459 FILLER_2_77
*460 FILLER_2_83
*461 FILLER_2_85
*462 FILLER_2_97
*463 FILLER_3_105
*464 FILLER_3_111
*465 FILLER_3_113
*466 FILLER_3_125
*467 FILLER_3_137
*468 FILLER_3_149
*469 FILLER_3_15
*470 FILLER_3_161
*471 FILLER_3_167
*472 FILLER_3_169
*473 FILLER_3_181
*474 FILLER_3_189
*475 FILLER_3_27
*476 FILLER_3_3
*477 FILLER_3_39
*478 FILLER_3_51
*479 FILLER_3_55
*480 FILLER_3_57
*481 FILLER_3_69
*482 FILLER_3_81
*483 FILLER_3_93
*484 FILLER_4_109
*485 FILLER_4_121
*486 FILLER_4_133
*487 FILLER_4_139
*488 FILLER_4_141
*489 FILLER_4_15
*490 FILLER_4_153
*491 FILLER_4_165
*492 FILLER_4_177
*493 FILLER_4_189
*494 FILLER_4_27
*495 FILLER_4_29
*496 FILLER_4_3
*497 FILLER_4_41
*498 FILLER_4_53
*499 FILLER_4_65
*500 FILLER_4_77
*501 FILLER_4_83
*502 FILLER_4_85
*503 FILLER_4_97
*504 FILLER_5_105
*505 FILLER_5_111
*506 FILLER_5_113
*507 FILLER_5_125
*508 FILLER_5_137
*509 FILLER_5_149
*510 FILLER_5_15
*511 FILLER_5_161
*512 FILLER_5_167
*513 FILLER_5_169
*514 FILLER_5_181
*515 FILLER_5_189
*516 FILLER_5_27
*517 FILLER_5_3
*518 FILLER_5_39
*519 FILLER_5_51
*520 FILLER_5_55
*521 FILLER_5_57
*522 FILLER_5_69
*523 FILLER_5_81
*524 FILLER_5_93
*525 FILLER_6_109
*526 FILLER_6_121
*527 FILLER_6_133
*528 FILLER_6_139
*529 FILLER_6_141
*530 FILLER_6_15
*531 FILLER_6_153
*532 FILLER_6_165
*533 FILLER_6_177
*534 FILLER_6_189
*535 FILLER_6_27
*536 FILLER_6_29
*537 FILLER_6_3
*538 FILLER_6_41
*539 FILLER_6_53
*540 FILLER_6_65
*541 FILLER_6_77
*542 FILLER_6_83
*543 FILLER_6_85
*544 FILLER_6_97
*545 FILLER_7_105
*546 FILLER_7_111
*547 FILLER_7_113
*548 FILLER_7_125
*549 FILLER_7_137
*550 FILLER_7_149
*551 FILLER_7_15
*552 FILLER_7_161
*553 FILLER_7_167
*554 FILLER_7_169
*555 FILLER_7_181
*556 FILLER_7_189
*557 FILLER_7_27
*558 FILLER_7_3
*559 FILLER_7_39
*560 FILLER_7_51
*561 FILLER_7_55
*562 FILLER_7_57
*563 FILLER_7_69
*564 FILLER_7_81
*565 FILLER_7_93
*566 FILLER_8_109
*567 FILLER_8_121
*568 FILLER_8_133
*569 FILLER_8_139
*570 FILLER_8_141
*571 FILLER_8_15
*572 FILLER_8_153
*573 FILLER_8_165
*574 FILLER_8_177
*575 FILLER_8_189
*576 FILLER_8_27
*577 FILLER_8_29
*578 FILLER_8_3
*579 FILLER_8_41
*580 FILLER_8_53
*581 FILLER_8_65
*582 FILLER_8_77
*583 FILLER_8_83
*584 FILLER_8_85
*585 FILLER_8_97
*586 FILLER_9_105
*587 FILLER_9_111
*588 FILLER_9_113
*589 FILLER_9_128
*590 FILLER_9_140
*591 FILLER_9_15
*592 FILLER_9_152
*593 FILLER_9_164
*594 FILLER_9_169
*595 FILLER_9_181
*596 FILLER_9_185
*597 FILLER_9_27
*598 FILLER_9_3
*599 FILLER_9_39
*600 FILLER_9_51
*601 FILLER_9_55
*602 FILLER_9_77
*603 FILLER_9_93
*604 PHY_EDGE_ROW_0_Left_28
*605 PHY_EDGE_ROW_0_Right_0
*606 PHY_EDGE_ROW_10_Left_38
*607 PHY_EDGE_ROW_10_Right_10
*608 PHY_EDGE_ROW_11_Left_39
*609 PHY_EDGE_ROW_11_Right_11
*610 PHY_EDGE_ROW_12_Left_40
*611 PHY_EDGE_ROW_12_Right_12
*612 PHY_EDGE_ROW_13_Left_41
*613 PHY_EDGE_ROW_13_Right_13
*614 PHY_EDGE_ROW_14_Left_42
*615 PHY_EDGE_ROW_14_Right_14
*616 PHY_EDGE_ROW_15_Left_43
*617 PHY_EDGE_ROW_15_Right_15
*618 PHY_EDGE_ROW_16_Left_44
*619 PHY_EDGE_ROW_16_Right_16
*620 PHY_EDGE_ROW_17_Left_45
*621 PHY_EDGE_ROW_17_Right_17
*622 PHY_EDGE_ROW_18_Left_46
*623 PHY_EDGE_ROW_18_Right_18
*624 PHY_EDGE_ROW_19_Left_47
*625 PHY_EDGE_ROW_19_Right_19
*626 PHY_EDGE_ROW_1_Left_29
*627 PHY_EDGE_ROW_1_Right_1
*628 PHY_EDGE_ROW_20_Left_48
*629 PHY_EDGE_ROW_20_Right_20
*630 PHY_EDGE_ROW_21_Left_49
*631 PHY_EDGE_ROW_21_Right_21
*632 PHY_EDGE_ROW_22_Left_50
*633 PHY_EDGE_ROW_22_Right_22
*634 PHY_EDGE_ROW_23_Left_51
*635 PHY_EDGE_ROW_23_Right_23
*636 PHY_EDGE_ROW_24_Left_52
*637 PHY_EDGE_ROW_24_Right_24
*638 PHY_EDGE_ROW_25_Left_53
*639 PHY_EDGE_ROW_25_Right_25
*640 PHY_EDGE_ROW_26_Left_54
*641 PHY_EDGE_ROW_26_Right_26
*642 PHY_EDGE_ROW_27_Left_55
*643 PHY_EDGE_ROW_27_Right_27
*644 PHY_EDGE_ROW_2_Left_30
*645 PHY_EDGE_ROW_2_Right_2
*646 PHY_EDGE_ROW_3_Left_31
*647 PHY_EDGE_ROW_3_Right_3
*648 PHY_EDGE_ROW_4_Left_32
*649 PHY_EDGE_ROW_4_Right_4
*650 PHY_EDGE_ROW_5_Left_33
*651 PHY_EDGE_ROW_5_Right_5
*652 PHY_EDGE_ROW_6_Left_34
*653 PHY_EDGE_ROW_6_Right_6
*654 PHY_EDGE_ROW_7_Left_35
*655 PHY_EDGE_ROW_7_Right_7
*656 PHY_EDGE_ROW_8_Left_36
*657 PHY_EDGE_ROW_8_Right_8
*658 PHY_EDGE_ROW_9_Left_37
*659 PHY_EDGE_ROW_9_Right_9
*660 TAP_TAPCELL_ROW_0_56
*661 TAP_TAPCELL_ROW_0_57
*662 TAP_TAPCELL_ROW_0_58
*663 TAP_TAPCELL_ROW_0_59
*664 TAP_TAPCELL_ROW_0_60
*665 TAP_TAPCELL_ROW_0_61
*666 TAP_TAPCELL_ROW_10_89
*667 TAP_TAPCELL_ROW_10_90
*668 TAP_TAPCELL_ROW_10_91
*669 TAP_TAPCELL_ROW_11_92
*670 TAP_TAPCELL_ROW_11_93
*671 TAP_TAPCELL_ROW_11_94
*672 TAP_TAPCELL_ROW_12_95
*673 TAP_TAPCELL_ROW_12_96
*674 TAP_TAPCELL_ROW_12_97
*675 TAP_TAPCELL_ROW_13_100
*676 TAP_TAPCELL_ROW_13_98
*677 TAP_TAPCELL_ROW_13_99
*678 TAP_TAPCELL_ROW_14_101
*679 TAP_TAPCELL_ROW_14_102
*680 TAP_TAPCELL_ROW_14_103
*681 TAP_TAPCELL_ROW_15_104
*682 TAP_TAPCELL_ROW_15_105
*683 TAP_TAPCELL_ROW_15_106
*684 TAP_TAPCELL_ROW_16_107
*685 TAP_TAPCELL_ROW_16_108
*686 TAP_TAPCELL_ROW_16_109
*687 TAP_TAPCELL_ROW_17_110
*688 TAP_TAPCELL_ROW_17_111
*689 TAP_TAPCELL_ROW_17_112
*690 TAP_TAPCELL_ROW_18_113
*691 TAP_TAPCELL_ROW_18_114
*692 TAP_TAPCELL_ROW_18_115
*693 TAP_TAPCELL_ROW_19_116
*694 TAP_TAPCELL_ROW_19_117
*695 TAP_TAPCELL_ROW_19_118
*696 TAP_TAPCELL_ROW_1_62
*697 TAP_TAPCELL_ROW_1_63
*698 TAP_TAPCELL_ROW_1_64
*699 TAP_TAPCELL_ROW_20_119
*700 TAP_TAPCELL_ROW_20_120
*701 TAP_TAPCELL_ROW_20_121
*702 TAP_TAPCELL_ROW_21_122
*703 TAP_TAPCELL_ROW_21_123
*704 TAP_TAPCELL_ROW_21_124
*705 TAP_TAPCELL_ROW_22_125
*706 TAP_TAPCELL_ROW_22_126
*707 TAP_TAPCELL_ROW_22_127
*708 TAP_TAPCELL_ROW_23_128
*709 TAP_TAPCELL_ROW_23_129
*710 TAP_TAPCELL_ROW_23_130
*711 TAP_TAPCELL_ROW_24_131
*712 TAP_TAPCELL_ROW_24_132
*713 TAP_TAPCELL_ROW_24_133
*714 TAP_TAPCELL_ROW_25_134
*715 TAP_TAPCELL_ROW_25_135
*716 TAP_TAPCELL_ROW_25_136
*717 TAP_TAPCELL_ROW_26_137
*718 TAP_TAPCELL_ROW_26_138
*719 TAP_TAPCELL_ROW_26_139
*720 TAP_TAPCELL_ROW_27_140
*721 TAP_TAPCELL_ROW_27_141
*722 TAP_TAPCELL_ROW_27_142
*723 TAP_TAPCELL_ROW_27_143
*724 TAP_TAPCELL_ROW_27_144
*725 TAP_TAPCELL_ROW_27_145
*726 TAP_TAPCELL_ROW_2_65
*727 TAP_TAPCELL_ROW_2_66
*728 TAP_TAPCELL_ROW_2_67
*729 TAP_TAPCELL_ROW_3_68
*730 TAP_TAPCELL_ROW_3_69
*731 TAP_TAPCELL_ROW_3_70
*732 TAP_TAPCELL_ROW_4_71
*733 TAP_TAPCELL_ROW_4_72
*734 TAP_TAPCELL_ROW_4_73
*735 TAP_TAPCELL_ROW_5_74
*736 TAP_TAPCELL_ROW_5_75
*737 TAP_TAPCELL_ROW_5_76
*738 TAP_TAPCELL_ROW_6_77
*739 TAP_TAPCELL_ROW_6_78
*740 TAP_TAPCELL_ROW_6_79
*741 TAP_TAPCELL_ROW_7_80
*742 TAP_TAPCELL_ROW_7_81
*743 TAP_TAPCELL_ROW_7_82
*744 TAP_TAPCELL_ROW_8_83
*745 TAP_TAPCELL_ROW_8_84
*746 TAP_TAPCELL_ROW_8_85
*747 TAP_TAPCELL_ROW_9_86
*748 TAP_TAPCELL_ROW_9_87
*749 TAP_TAPCELL_ROW_9_88
*750 _18_
*751 _19_
*752 _20_
*753 _21_
*754 _22_
*755 _23_
*756 _24_
*757 _25_
*758 _26_
*759 _27_
*760 _28_
*761 _29_
*762 _30_
*763 _31_
*764 _32_
*765 _33_
*766 _34_
*767 _35_
*768 _36_
*769 _37_
*770 _38_
*771 _39_
*772 _40_
*773 _41_
*774 _42_
*775 _43_
*776 _44_
*777 clkbuf_0_clk
*778 clkbuf_1_0__f_clk
*779 clkbuf_1_1__f_clk
*780 hold1
*781 hold2
*782 hold3
*783 hold4
*784 hold5
*785 hold6
*786 hold7
*787 input1
*788 input2
*789 output10
*790 output11
*791 output3
*792 output4
*793 output5
*794 output6
*795 output7
*796 output8
*797 output9

*PORTS
clk I
count[0] O
count[1] O
count[2] O
count[3] O
count[4] O
count[5] O
count[6] O
count[7] O
enable I
overflow O
rst_n I

*D_NET *3 0.00583179
*CONN
*P clk I
*I *777:A I *D sky130_fd_sc_hd__clkbuf_16
*CAP
1 clk 0.00273981
2 *777:A 0.00273981
3 *777:A count[3] 9.50048e-05
4 *777:A *753:A 0
5 *777:A *794:A 0.000257168
6 *777:A *50:69 0
*RES
1 clk *777:A 18.0996 
*END

*D_NET *4 0.000813966
*CONN
*P count[0] O
*I *791:X O *D sky130_fd_sc_hd__buf_2
*CAP
1 count[0] 0.000406983
2 *791:X 0.000406983
3 count[0] *787:A 0
*RES
1 *791:X count[0] 10.185 
*END

*D_NET *5 0.000494787
*CONN
*P count[1] O
*I *792:X O *D sky130_fd_sc_hd__buf_2
*CAP
1 count[1] 0.000247393
2 *792:X 0.000247393
3 count[1] count[2] 0
*RES
1 *792:X count[1] 5.16003 
*END

*D_NET *6 0.000586516
*CONN
*P count[2] O
*I *793:X O *D sky130_fd_sc_hd__buf_2
*CAP
1 count[2] 0.000293258
2 *793:X 0.000293258
3 count[1] count[2] 0
*RES
1 *793:X count[2] 5.92503 
*END

*D_NET *7 0.000569953
*CONN
*P count[3] O
*I *794:X O *D sky130_fd_sc_hd__buf_2
*CAP
1 count[3] 0.000237474
2 *794:X 0.000237474
3 *777:A count[3] 9.50048e-05
*RES
1 *794:X count[3] 5.92503 
*END

*D_NET *8 0.00104768
*CONN
*P count[4] O
*I *795:X O *D sky130_fd_sc_hd__buf_2
*CAP
1 count[4] 0.00052384
2 *795:X 0.00052384
*RES
1 *795:X count[4] 12.06 
*END

*D_NET *9 0.000546212
*CONN
*P count[5] O
*I *796:X O *D sky130_fd_sc_hd__buf_2
*CAP
1 count[5] 0.000273106
2 *796:X 0.000273106
*RES
1 *796:X count[5] 5.4733 
*END

*D_NET *10 0.000617869
*CONN
*P count[6] O
*I *797:X O *D sky130_fd_sc_hd__buf_2
*CAP
1 count[6] 0.000308934
2 *797:X 0.000308934
*RES
1 *797:X count[6] 5.9833 
*END

*D_NET *11 0.000625826
*CONN
*P count[7] O
*I *789:X O *D sky130_fd_sc_hd__buf_2
*CAP
1 count[7] 0.000261805
2 *789:X 0.000261805
3 count[7] overflow 0.000102216
*RES
1 *789:X count[7] 5.9833 
*END

*D_NET *12 0.000790616
*CONN
*P enable I
*I *787:A I *D sky130_fd_sc_hd__buf_1
*CAP
1 enable 0.000393089
2 *787:A 0.000393089
3 *787:A *791:A 4.43871e-06
4 count[0] *787:A 0
*RES
1 enable *787:A 10.35 
*END

*D_NET *13 0.00056159
*CONN
*P overflow O
*I *790:X O *D sky130_fd_sc_hd__buf_2
*CAP
1 overflow 0.000229687
2 *790:X 0.000229687
3 count[7] overflow 0.000102216
*RES
1 *790:X overflow 5.4733 
*END

*D_NET *14 0.000812724
*CONN
*P rst_n I
*I *788:A I *D sky130_fd_sc_hd__clkbuf_4
*CAP
1 rst_n 0.000406362
2 *788:A 0.000406362
*RES
1 rst_n *788:A 10.44 
*END

*D_NET *15 0.00112214
*CONN
*I *769:D I *D sky130_fd_sc_hd__dfrtp_1
*I *757:X O *D sky130_fd_sc_hd__xor2_1
*CAP
1 *769:D 0.000561072
2 *757:X 0.000561072
3 *769:D *35:16 0
*RES
1 *757:X *769:D 15.15 
*END

*D_NET *16 0.000645183
*CONN
*I *770:D I *D sky130_fd_sc_hd__dfrtp_1
*I *759:Y O *D sky130_fd_sc_hd__nor2_1
*CAP
1 *770:D 0.000205152
2 *759:Y 0.000205152
3 *770:D *758:A1 3.86607e-05
4 *770:D *759:B 7.06865e-05
5 *770:D *770:CLK 0.000117442
6 *770:D *770:RESET_B 0
7 *770:D *23:12 8.09021e-06
*RES
1 *759:Y *770:D 10.815 
*END

*D_NET *17 0.000440656
*CONN
*I *771:D I *D sky130_fd_sc_hd__dfrtp_1
*I *761:Y O *D sky130_fd_sc_hd__nor2_1
*CAP
1 *771:D 5.55071e-05
2 *761:Y 5.55071e-05
3 *771:D *751:C 0.000241483
4 *771:D *761:A 4.99619e-05
5 *771:D *771:CLK 3.23663e-05
6 *771:D *792:A 5.83121e-06
*RES
1 *761:Y *771:D 5.375 
*END

*D_NET *18 0.000763062
*CONN
*I *772:D I *D sky130_fd_sc_hd__dfrtp_1
*I *763:X O *D sky130_fd_sc_hd__and2_1
*CAP
1 *772:D 0.000190583
2 *763:X 0.000190583
3 *772:D *762:B 1.33293e-05
4 *772:D *763:B 3.00381e-05
5 *772:D *772:CLK 2.75145e-05
6 *772:D *50:33 0.000249795
7 *772:D *50:48 6.12198e-05
8 *772:D *50:63 0
*RES
1 *763:X *772:D 7.22 
*END

*D_NET *19 0.000352912
*CONN
*I *773:D I *D sky130_fd_sc_hd__dfrtp_1
*I *764:Y O *D sky130_fd_sc_hd__xnor2_1
*CAP
1 *773:D 0.000133161
2 *764:Y 0.000133161
3 *773:D *764:B 0
4 *773:D *773:RESET_B 8.65905e-05
*RES
1 *764:Y *773:D 9.12 
*END

*D_NET *20 0.000498359
*CONN
*I *774:D I *D sky130_fd_sc_hd__dfrtp_1
*I *766:X O *D sky130_fd_sc_hd__and2b_1
*CAP
1 *774:D 0.000199617
2 *766:X 0.000199617
3 *774:D *795:A 0
4 *774:D *52:12 9.91257e-05
*RES
1 *766:X *774:D 10.065 
*END

*D_NET *21 0.000934036
*CONN
*I *775:D I *D sky130_fd_sc_hd__dfrtp_1
*I *767:X O *D sky130_fd_sc_hd__xor2_1
*CAP
1 *775:D 0.000270506
2 *767:X 0.000270506
3 *775:D *767:A 0.000393024
4 *775:D *774:RESET_B 0
5 *775:D *46:110 0
*RES
1 *767:X *775:D 12.645 
*END

*D_NET *22 0.000376911
*CONN
*I *776:D I *D sky130_fd_sc_hd__dfrtp_1
*I *768:X O *D sky130_fd_sc_hd__xor2_1
*CAP
1 *776:D 0.000188456
2 *768:X 0.000188456
3 *776:D *768:B 0
*RES
1 *768:X *776:D 9.885 
*END

*D_NET *23 0.00120695
*CONN
*I *759:A I *D sky130_fd_sc_hd__nor2_1
*I *760:B I *D sky130_fd_sc_hd__nor2_1
*I *750:X O *D sky130_fd_sc_hd__and3_1
*CAP
1 *759:A 0
2 *760:B 4.40046e-05
3 *750:X 0.000210828
4 *23:12 0.000254832
5 *760:B *751:C 8.88715e-05
6 *760:B *761:A 0.000122331
7 *760:B *24:10 4.66108e-05
8 *23:12 *759:B 0.000121943
9 *23:12 *24:25 2.92496e-05
10 *23:12 *34:10 7.21296e-06
11 *23:12 *48:25 0.000272978
12 *770:D *23:12 8.09021e-06
*RES
1 *750:X *23:12 10.01 
2 *23:12 *760:B 3.085 
3 *23:12 *759:A 1.6 
*END

*D_NET *24 0.00919539
*CONN
*I *752:B I *D sky130_fd_sc_hd__nand2_1
*I *762:B I *D sky130_fd_sc_hd__or2_1
*I *754:B I *D sky130_fd_sc_hd__and3_1
*I *765:A3 I *D sky130_fd_sc_hd__a31o_1
*I *755:C I *D sky130_fd_sc_hd__and4_1
*I *761:A I *D sky130_fd_sc_hd__nor2_1
*I *751:X O *D sky130_fd_sc_hd__and4_1
*CAP
1 *752:B 4.4141e-05
2 *762:B 0.000347162
3 *754:B 6.42306e-05
4 *765:A3 0.000151703
5 *755:C 0.000369857
6 *761:A 9.07873e-05
7 *751:X 0.000214561
8 *24:64 0.000436443
9 *24:31 0.00052156
10 *24:29 0.00118489
11 *24:25 0.00164616
12 *24:10 0.000785709
13 *752:B *772:CLK 0
14 *752:B *34:45 5.16418e-05
15 *754:B *755:A 1.68029e-05
16 *755:C *755:A 0
17 *755:C *755:B 3.95724e-05
18 *755:C *755:D 0.000226441
19 *755:C *766:A_N 2.97004e-06
20 *755:C *26:10 0
21 *755:C *50:69 5.55344e-05
22 *761:A *751:C 2.25157e-05
23 *761:A *761:B 0.000154718
24 *761:A *770:CLK 8.65961e-05
25 *761:A *771:CLK 0.000381754
26 *762:B *772:CLK 0.000393024
27 *762:B *50:33 1.61831e-05
28 *762:B *50:48 1.31356e-05
29 *765:A3 *765:A1 6.28843e-05
30 *765:A3 *766:A_N 0.00010727
31 *765:A3 *50:69 9.42224e-05
32 *765:A3 *51:21 0
33 *24:10 *751:C 0.000251418
34 *24:10 *751:D 4.82863e-05
35 *24:10 *757:B 4.82919e-05
36 *24:10 *770:CLK 0.000261326
37 *24:25 *34:10 0.000278031
38 *24:25 *34:45 0.000366014
39 *24:29 *755:A 2.65814e-06
40 *24:29 *50:69 2.47313e-05
41 *24:64 *34:45 7.06865e-05
42 *760:B *761:A 0.000122331
43 *760:B *24:10 4.66108e-05
44 *771:D *761:A 4.99619e-05
45 *772:D *762:B 1.33293e-05
46 *23:12 *24:25 2.92496e-05
*RES
1 *751:X *24:10 7.255 
2 *24:10 *761:A 6.31 
3 *24:10 *24:25 13.07 
4 *24:25 *24:29 14.18 
5 *24:29 *24:31 2 
6 *24:31 *755:C 10.965 
7 *24:31 *765:A3 7.02 
8 *24:29 *754:B 2.395 
9 *24:25 *24:64 0.87 
10 *24:64 *762:B 8.715 
11 *24:64 *752:B 4.47 
*END

*D_NET *25 0.000400262
*CONN
*I *764:B I *D sky130_fd_sc_hd__xnor2_1
*I *763:A I *D sky130_fd_sc_hd__and2_1
*I *752:Y O *D sky130_fd_sc_hd__nand2_1
*CAP
1 *764:B 0.000108323
2 *763:A 1.11796e-05
3 *752:Y 0.000119503
4 *763:A *772:CLK 8.8266e-05
5 *763:A *50:48 4.99619e-05
6 *763:A *50:63 2.30292e-05
7 *764:B *773:RESET_B 0
8 *773:D *764:B 0
*RES
1 *752:Y *763:A 3.995 
2 *752:Y *764:B 8.835 
*END

*D_NET *26 0.00148767
*CONN
*I *754:C I *D sky130_fd_sc_hd__and3_1
*I *755:D I *D sky130_fd_sc_hd__and4_1
*I *753:X O *D sky130_fd_sc_hd__and2_1
*CAP
1 *754:C 4.05177e-05
2 *755:D 0.000336045
3 *753:X 0.000155376
4 *26:10 0.000531939
5 *754:C *755:A 7.72727e-05
6 *754:C *766:A_N 1.17309e-05
7 *754:C *767:B 5.83121e-06
8 *755:D *755:B 1.61831e-05
9 *26:10 *766:A_N 7.06865e-05
10 *26:10 *51:21 1.56428e-05
11 *755:C *755:D 0.000226441
12 *755:C *26:10 0
*RES
1 *753:X *26:10 5.685 
2 *26:10 *755:D 8.19 
3 *26:10 *754:C 4.635 
*END

*D_NET *27 0.0011395
*CONN
*I *767:B I *D sky130_fd_sc_hd__xor2_1
*I *766:A_N I *D sky130_fd_sc_hd__and2b_1
*I *754:X O *D sky130_fd_sc_hd__and3_1
*CAP
1 *767:B 0.000216122
2 *766:A_N 0.000145212
3 *754:X 0
4 *27:4 0.000361334
5 *766:A_N *51:21 0.000141606
6 *767:B *755:A 7.67345e-05
7 *754:C *766:A_N 1.17309e-05
8 *754:C *767:B 5.83121e-06
9 *755:C *766:A_N 2.97004e-06
10 *765:A3 *766:A_N 0.00010727
11 *26:10 *766:A_N 7.06865e-05
*RES
1 *754:X *27:4 1.6 
2 *27:4 *766:A_N 9.215 
3 *27:4 *767:B 5.425 
*END

*D_NET *28 0.00244407
*CONN
*I *756:B I *D sky130_fd_sc_hd__and2_1
*I *768:B I *D sky130_fd_sc_hd__xor2_1
*I *755:X O *D sky130_fd_sc_hd__and4_1
*CAP
1 *756:B 0
2 *768:B 0.000323159
3 *755:X 0.000720969
4 *28:10 0.00104413
5 *768:B *768:A 0.000124895
6 *768:B *35:16 0
7 *768:B *46:110 0
8 *28:10 *755:B 0.000230916
9 *28:10 *35:16 0
10 *28:10 *46:110 0
11 *776:D *768:B 0
*RES
1 *755:X *28:10 14.655 
2 *28:10 *768:B 9.18 
3 *28:10 *756:B 3.6 
*END

*D_NET *29 0.000399683
*CONN
*I *759:B I *D sky130_fd_sc_hd__nor2_1
*I *758:Y O *D sky130_fd_sc_hd__a21oi_1
*CAP
1 *759:B 0.000103527
2 *758:Y 0.000103527
3 *759:B *751:B 0
4 *770:D *759:B 7.06865e-05
5 *23:12 *759:B 0.000121943
*RES
1 *758:Y *759:B 9.285 
*END

*D_NET *30 0.000504474
*CONN
*I *761:B I *D sky130_fd_sc_hd__nor2_1
*I *760:Y O *D sky130_fd_sc_hd__nor2_1
*CAP
1 *761:B 5.54184e-05
2 *760:Y 5.54184e-05
3 *761:B *751:C 0.000238919
4 *761:A *761:B 0.000154718
*RES
1 *760:Y *761:B 5.735 
*END

*D_NET *31 0.000227144
*CONN
*I *763:B I *D sky130_fd_sc_hd__and2_1
*I *762:X O *D sky130_fd_sc_hd__or2_1
*CAP
1 *763:B 3.52678e-05
2 *762:X 3.52678e-05
3 *763:B *50:48 0.00012657
4 *772:D *763:B 3.00381e-05
*RES
1 *762:X *763:B 4.34 
*END

*D_NET *32 0.000310222
*CONN
*I *766:B I *D sky130_fd_sc_hd__and2b_1
*I *765:X O *D sky130_fd_sc_hd__a31o_1
*CAP
1 *766:B 7.26736e-05
2 *765:X 7.26736e-05
3 *766:B *52:12 0.000164874
*RES
1 *765:X *766:B 4.685 
*END

*D_NET *33 0.00188138
*CONN
*I *779:A I *D sky130_fd_sc_hd__clkbuf_16
*I *778:A I *D sky130_fd_sc_hd__clkbuf_16
*I *777:X O *D sky130_fd_sc_hd__clkbuf_16
*CAP
1 *779:A 0.000302892
2 *778:A 0.000535395
3 *777:X 0.000102405
4 *33:10 0.000940692
*RES
1 *777:X *33:10 7.235 
2 *33:10 *778:A 9.64 
3 *33:10 *779:A 6.19 
*END

*D_NET *34 0.00550546
*CONN
*I *773:CLK I *D sky130_fd_sc_hd__dfrtp_1
*I *772:CLK I *D sky130_fd_sc_hd__dfrtp_1
*I *770:CLK I *D sky130_fd_sc_hd__dfrtp_1
*I *771:CLK I *D sky130_fd_sc_hd__dfrtp_1
*I *778:X O *D sky130_fd_sc_hd__clkbuf_16
*CAP
1 *773:CLK 0
2 *772:CLK 0.000233026
3 *770:CLK 0.00030464
4 *771:CLK 0.00023289
5 *778:X 0.000544157
6 *34:45 0.000522728
7 *34:10 0.000791985
8 *770:CLK *751:A 0.00017354
9 *770:CLK *758:A1 7.23602e-05
10 *770:CLK *47:26 0.000136182
11 *772:CLK *46:36 0
12 *772:CLK *50:33 3.48911e-05
13 *772:CLK *50:48 0.000233882
14 *772:CLK *50:63 2.21842e-05
15 *34:10 *760:A 4.11194e-05
16 *752:B *772:CLK 0
17 *752:B *34:45 5.16418e-05
18 *761:A *770:CLK 8.65961e-05
19 *761:A *771:CLK 0.000381754
20 *762:B *772:CLK 0.000393024
21 *763:A *772:CLK 8.8266e-05
22 *770:D *770:CLK 0.000117442
23 *771:D *771:CLK 3.23663e-05
24 *772:D *772:CLK 2.75145e-05
25 *23:12 *34:10 7.21296e-06
26 *24:10 *770:CLK 0.000261326
27 *24:25 *34:10 0.000278031
28 *24:25 *34:45 0.000366014
29 *24:64 *34:45 7.06865e-05
*RES
1 *778:X *34:10 11.57 
2 *34:10 *771:CLK 6.205 
3 *34:10 *770:CLK 12.485 
4 *778:X *34:45 11.51 
5 *34:45 *772:CLK 11.915 
6 *34:45 *773:CLK 1.6 
*END

*D_NET *35 0.00462597
*CONN
*I *774:CLK I *D sky130_fd_sc_hd__dfrtp_1
*I *775:CLK I *D sky130_fd_sc_hd__dfrtp_1
*I *776:CLK I *D sky130_fd_sc_hd__dfrtp_1
*I *769:CLK I *D sky130_fd_sc_hd__dfrtp_1
*I *779:X O *D sky130_fd_sc_hd__clkbuf_16
*CAP
1 *774:CLK 0.000745528
2 *775:CLK 0.000121192
3 *776:CLK 0
4 *769:CLK 0.000100978
5 *779:X 0.000392161
6 *35:30 0.000981512
7 *35:16 0.000661302
8 *35:8 0.00106728
9 *769:CLK *776:RESET_B 0.000102024
10 *774:CLK *755:A 0
11 *774:CLK *795:A 0.000137571
12 *775:CLK *755:B 0.000316421
13 *768:B *35:16 0
14 *769:D *35:16 0
15 *28:10 *35:16 0
*RES
1 *779:X *35:8 7.845 
2 *35:8 *35:16 11.33 
3 *35:16 *769:CLK 3.775 
4 *35:16 *776:CLK 1.6 
5 *35:8 *35:30 1.635 
6 *35:30 *775:CLK 6.465 
7 *35:30 *774:CLK 14.58 
*END

*D_NET *36 0.00377631
*CONN
*I *757:B I *D sky130_fd_sc_hd__xor2_1
*I *751:D I *D sky130_fd_sc_hd__and4_1
*I *750:C I *D sky130_fd_sc_hd__and3_1
*I *758:A2 I *D sky130_fd_sc_hd__a21oi_1
*I *787:X O *D sky130_fd_sc_hd__buf_1
*CAP
1 *757:B 0.00015216
2 *751:D 2.12116e-05
3 *750:C 0
4 *758:A2 0.000120816
5 *787:X 0.00116629
6 *36:30 0.00033373
7 *36:12 0.000199504
8 *36:8 0.00140534
9 *758:A2 *47:24 7.99345e-05
10 *758:A2 *48:25 1.19928e-05
11 *36:8 *791:A 0
12 *36:8 *47:26 0
13 *36:12 *47:20 3.66286e-05
14 *36:12 *47:24 9.49276e-05
15 *36:30 *751:A 0
16 *36:30 *751:B 5.72004e-05
17 *36:30 *757:A 0
18 *24:10 *751:D 4.82863e-05
19 *24:10 *757:B 4.82919e-05
*RES
1 *787:X *36:8 22.83 
2 *36:8 *36:12 3.2 
3 *36:12 *758:A2 3.295 
4 *36:12 *750:C 1.6 
5 *36:8 *36:30 4.91 
6 *36:30 *751:D 2.05 
7 *36:30 *757:B 4.135 
*END

*D_NET *37 0.00339875
*CONN
*I *789:A I *D sky130_fd_sc_hd__buf_2
*I *780:A I *D sky130_fd_sc_hd__dlygate4sd3_1
*I *756:A I *D sky130_fd_sc_hd__and2_1
*I *776:Q O *D sky130_fd_sc_hd__dfrtp_1
*CAP
1 *789:A 0.000995013
2 *780:A 0.00119005
3 *756:A 0.000307529
4 *776:Q 0
5 *37:4 0.000502563
6 *756:A *790:A 0.000313852
7 *756:A *46:110 8.97486e-05
8 *789:A *768:A 0
*RES
1 *776:Q *37:4 1.6 
2 *37:4 *756:A 11.735 
3 *37:4 *780:A 4.465 
4 *780:A *789:A 22.305 
*END

*D_NET *38 0.00319236
*CONN
*I *790:A I *D sky130_fd_sc_hd__buf_2
*I *756:X O *D sky130_fd_sc_hd__and2_1
*CAP
1 *790:A 0.00143925
2 *756:X 0.00143925
3 *756:A *790:A 0.000313852
*RES
1 *756:X *790:A 28.17 
*END

*D_NET *39 0.00100354
*CONN
*I *768:A I *D sky130_fd_sc_hd__xor2_1
*I *780:X O *D sky130_fd_sc_hd__dlygate4sd3_1
*CAP
1 *768:A 0.000439321
2 *780:X 0.000439321
3 *768:B *768:A 0.000124895
4 *789:A *768:A 0
*RES
1 *780:X *768:A 14.205 
*END

*D_NET *40 0.00131507
*CONN
*I *767:A I *D sky130_fd_sc_hd__xor2_1
*I *781:X O *D sky130_fd_sc_hd__dlygate4sd3_1
*CAP
1 *767:A 0.000461025
2 *781:X 0.000461025
3 *775:D *767:A 0.000393024
*RES
1 *781:X *767:A 11.24 
*END

*D_NET *41 0.000602397
*CONN
*I *760:A I *D sky130_fd_sc_hd__nor2_1
*I *782:X O *D sky130_fd_sc_hd__dlygate4sd3_1
*CAP
1 *760:A 0.000280639
2 *782:X 0.000280639
3 *34:10 *760:A 4.11194e-05
*RES
1 *782:X *760:A 10.755 
*END

*D_NET *42 8.25784e-05
*CONN
*I *758:B1 I *D sky130_fd_sc_hd__a21oi_1
*I *783:X O *D sky130_fd_sc_hd__dlygate4sd3_1
*CAP
1 *758:B1 2.75319e-05
2 *783:X 2.75319e-05
3 *758:B1 *48:25 2.75145e-05
*RES
1 *783:X *758:B1 3.65 
*END

*D_NET *43 0.00106594
*CONN
*I *764:A I *D sky130_fd_sc_hd__xnor2_1
*I *784:X O *D sky130_fd_sc_hd__dlygate4sd3_1
*CAP
1 *764:A 0.00031859
2 *784:X 0.00031859
3 *764:A *773:RESET_B 0.000428764