* NGSPICE file created from counter.ext - technology: sky130A

* Black-box entry subcircuit for sky130_ef_sc_hd__decap_12 abstract view
.subckt sky130_ef_sc_hd__decap_12 VPWR VGND VPB VNB
.ends

* Black-box entry subcircuit for sky130_fd_sc_hd__decap_6 abstract view
.subckt sky130_fd_sc_hd__decap_6 VGND VNB VPB VPWR
.ends

* Black-box entry subcircuit for sky130_fd_sc_hd__tapvpwrvgnd_1 abstract view
.subckt sky130_fd_sc_hd__tapvpwrvgnd_1 VGND VPWR
.ends

* Black-box entry subcircuit for sky130_fd_sc_hd__fill_1 abstract view
.subckt sky130_fd_sc_hd__fill_1 VGND VNB VPB VPWR
.ends

* Black-box entry subcircuit for sky130_fd_sc_hd__fill_2 abstract view
.subckt sky130_fd_sc_hd__fill_2 VGND VNB VPB VPWR
.ends

* Black-box entry subcircuit for sky130_fd_sc_hd__decap_8 abstract view
.subckt sky130_fd_sc_hd__decap_8 VGND VNB VPB VPWR
.ends

* Black-box entry subcircuit for sky130_fd_sc_hd__decap_3 abstract view
.subckt sky130_fd_sc_hd__decap_3 VGND VNB VPB VPWR
.ends

* Black-box entry subcircuit for sky130_fd_sc_hd__buf_2 abstract view
.subckt sky130_fd_sc_hd__buf_2 A VGND VNB VPB VPWR X
.ends

* Black-box entry subcircuit for sky130_fd_sc_hd__decap_4 abstract view
.subckt sky130_fd_sc_hd__decap_4 VGND VNB VPB VPWR
.ends

* Black-box entry subcircuit for sky130_fd_sc_hd__nor2_1 abstract view
.subckt sky130_fd_sc_hd__nor2_1 A B VGND VNB VPB VPWR Y
.ends

* Black-box entry subcircuit for sky130_fd_sc_hd__dfrtp_1 abstract view
.subckt sky130_fd_sc_hd__dfrtp_1 CLK D RESET_B VGND VNB VPB VPWR Q
.ends

* Black-box entry subcircuit for sky130_fd_sc_hd__a21oi_1 abstract view
.subckt sky130_fd_sc_hd__a21oi_1 A1 A2 B1 VGND VNB VPB VPWR Y
.ends

* Black-box entry subcircuit for sky130_fd_sc_hd__xor2_1 abstract view
.subckt sky130_fd_sc_hd__xor2_1 A B VGND VNB VPB VPWR X
.ends

* Black-box entry subcircuit for sky130_fd_sc_hd__clkbuf_16 abstract view
.subckt sky130_fd_sc_hd__clkbuf_16 A VGND VNB VPB VPWR X
.ends

* Black-box entry subcircuit for sky130_fd_sc_hd__and2_1 abstract view
.subckt sky130_fd_sc_hd__and2_1 A B VGND VNB VPB VPWR X
.ends

* Black-box entry subcircuit for sky130_fd_sc_hd__and4_1 abstract view
.subckt sky130_fd_sc_hd__and4_1 A B C D VGND VNB VPB VPWR X
.ends

* Black-box entry subcircuit for sky130_fd_sc_hd__and3_1 abstract view
.subckt sky130_fd_sc_hd__and3_1 A B C VGND VNB VPB VPWR X
.ends

* Black-box entry subcircuit for sky130_fd_sc_hd__nand2_1 abstract view
.subckt sky130_fd_sc_hd__nand2_1 A B VGND VNB VPB VPWR Y
.ends

* Black-box entry subcircuit for sky130_fd_sc_hd__buf_1 abstract view
.subckt sky130_fd_sc_hd__buf_1 A VGND VNB VPB VPWR X
.ends

* Black-box entry subcircuit for sky130_fd_sc_hd__clkbuf_4 abstract view
.subckt sky130_fd_sc_hd__clkbuf_4 A VGND VNB VPB VPWR X
.ends

* Black-box entry subcircuit for sky130_fd_sc_hd__dlygate4sd3_1 abstract view
.subckt sky130_fd_sc_hd__dlygate4sd3_1 A VGND VNB VPB VPWR X
.ends

* Black-box entry subcircuit for sky130_fd_sc_hd__and2b_1 abstract view
.subckt sky130_fd_sc_hd__and2b_1 A_N B VGND VNB VPB VPWR X
.ends

* Black-box entry subcircuit for sky130_fd_sc_hd__a31o_1 abstract view
.subckt sky130_fd_sc_hd__a31o_1 A1 A2 A3 B1 VGND VNB VPB VPWR X
.ends

* Black-box entry subcircuit for sky130_fd_sc_hd__xnor2_1 abstract view
.subckt sky130_fd_sc_hd__xnor2_1 A B VGND VNB VPB VPWR Y
.ends

* Black-box entry subcircuit for sky130_fd_sc_hd__or2_1 abstract view
.subckt sky130_fd_sc_hd__or2_1 A B VGND VNB VPB VPWR X
.ends

.subckt counter VGND VPWR clk count[0] count[1] count[2] count[3] count[4] count[5]
+ count[6] count[7] enable overflow rst_n
XFILLER_22_177 VPWR VGND VPWR VGND sky130_ef_sc_hd__decap_12
XFILLER_22_133 VGND VGND VPWR VPWR sky130_fd_sc_hd__decap_6
XFILLER_26_85 VPWR VGND VPWR VGND sky130_ef_sc_hd__decap_12
XFILLER_26_41 VPWR VGND VPWR VGND sky130_ef_sc_hd__decap_12
XTAP_TAPCELL_ROW_15_106 VGND VPWR sky130_fd_sc_hd__tapvpwrvgnd_1
XFILLER_13_111 VGND VGND VPWR VPWR sky130_fd_sc_hd__fill_1
XTAP_TAPCELL_ROW_20_120 VGND VPWR sky130_fd_sc_hd__tapvpwrvgnd_1
XFILLER_2_165 VPWR VGND VPWR VGND sky130_ef_sc_hd__decap_12
XFILLER_2_121 VPWR VGND VPWR VGND sky130_ef_sc_hd__decap_12
XFILLER_0_57 VGND VGND VPWR VPWR sky130_fd_sc_hd__fill_2
XFILLER_9_55 VGND VGND VPWR VPWR sky130_fd_sc_hd__fill_1
XFILLER_9_77 VGND VGND VPWR VPWR sky130_fd_sc_hd__decap_8
XPHY_EDGE_ROW_8_Left_36 VGND VGND VPWR VPWR sky130_fd_sc_hd__decap_3
XFILLER_18_53 VPWR VGND VPWR VGND sky130_ef_sc_hd__decap_12
XFILLER_20_65 VPWR VGND VPWR VGND sky130_ef_sc_hd__decap_12
XFILLER_26_109 VPWR VGND VPWR VGND sky130_ef_sc_hd__decap_12
XFILLER_13_3 VPWR VGND VPWR VGND sky130_ef_sc_hd__decap_12
Xoutput7 net7 VGND VGND VPWR VPWR count[4] sky130_fd_sc_hd__buf_2
XTAP_TAPCELL_ROW_18_115 VGND VPWR sky130_fd_sc_hd__tapvpwrvgnd_1
XFILLER_22_189 VGND VGND VPWR VPWR sky130_fd_sc_hd__fill_1
XFILLER_26_97 VPWR VGND VPWR VGND sky130_ef_sc_hd__decap_12
XFILLER_26_53 VPWR VGND VPWR VGND sky130_ef_sc_hd__decap_12
XPHY_EDGE_ROW_21_Left_49 VGND VGND VPWR VPWR sky130_fd_sc_hd__decap_3
XFILLER_13_189 VGND VGND VPWR VPWR sky130_fd_sc_hd__fill_1
XFILLER_13_167 VGND VGND VPWR VPWR sky130_fd_sc_hd__fill_1
XFILLER_3_57 VPWR VGND VPWR VGND sky130_ef_sc_hd__decap_12
XFILLER_9_105 VGND VGND VPWR VPWR sky130_fd_sc_hd__decap_6
XTAP_TAPCELL_ROW_20_121 VGND VPWR sky130_fd_sc_hd__tapvpwrvgnd_1
XFILLER_10_115 VGND VGND VPWR VPWR sky130_fd_sc_hd__decap_4
XPHY_EDGE_ROW_21_Right_21 VGND VGND VPWR VPWR sky130_fd_sc_hd__decap_3
XPHY_EDGE_ROW_12_Right_12 VGND VGND VPWR VPWR sky130_fd_sc_hd__decap_3
XFILLER_2_177 VPWR VGND VPWR VGND sky130_ef_sc_hd__decap_12
XFILLER_2_133 VGND VGND VPWR VPWR sky130_fd_sc_hd__decap_6
XPHY_EDGE_ROW_24_Left_52 VGND VGND VPWR VPWR sky130_fd_sc_hd__decap_3
XFILLER_20_77 VGND VGND VPWR VPWR sky130_fd_sc_hd__decap_6
XFILLER_15_55 VGND VGND VPWR VPWR sky130_fd_sc_hd__fill_1
XPHY_EDGE_ROW_6_Right_6 VGND VGND VPWR VPWR sky130_fd_sc_hd__decap_3
Xoutput8 net8 VGND VGND VPWR VPWR count[5] sky130_fd_sc_hd__buf_2
Xoutput10 net10 VGND VGND VPWR VPWR count[7] sky130_fd_sc_hd__buf_2
XFILLER_26_65 VPWR VGND VPWR VGND sky130_ef_sc_hd__decap_12
XTAP_TAPCELL_ROW_23_130 VGND VPWR sky130_fd_sc_hd__tapvpwrvgnd_1
XFILLER_9_128 VPWR VGND VPWR VGND sky130_ef_sc_hd__decap_12
XFILLER_13_113 VPWR VGND VPWR VGND sky130_ef_sc_hd__decap_12
XFILLER_3_69 VPWR VGND VPWR VGND sky130_ef_sc_hd__decap_12
XFILLER_6_109 VPWR VGND VPWR VGND sky130_ef_sc_hd__decap_12
XFILLER_10_149 VPWR VGND VPWR VGND sky130_ef_sc_hd__decap_12
XFILLER_23_55 VGND VGND VPWR VPWR sky130_fd_sc_hd__fill_1
XFILLER_3_3 VPWR VGND VPWR VGND sky130_ef_sc_hd__decap_12
XFILLER_2_189 VGND VGND VPWR VPWR sky130_fd_sc_hd__fill_1
XFILLER_0_15 VPWR VGND VPWR VGND sky130_ef_sc_hd__decap_12
XFILLER_18_99 VGND VGND VPWR VPWR sky130_fd_sc_hd__fill_1
XFILLER_25_111 VGND VGND VPWR VPWR sky130_fd_sc_hd__fill_1
XFILLER_15_89 VGND VGND VPWR VPWR sky130_fd_sc_hd__decap_3
Xoutput9 net9 VGND VGND VPWR VPWR count[6] sky130_fd_sc_hd__buf_2
Xoutput11 net11 VGND VGND VPWR VPWR overflow sky130_fd_sc_hd__buf_2
XFILLER_26_77 VGND VGND VPWR VPWR sky130_fd_sc_hd__decap_6
XFILLER_13_169 VPWR VGND VPWR VGND sky130_ef_sc_hd__decap_12
XFILLER_13_125 VPWR VGND VPWR VGND sky130_ef_sc_hd__decap_12
XFILLER_3_15 VPWR VGND VPWR VGND sky130_ef_sc_hd__decap_12
XFILLER_0_27 VGND VGND VPWR VPWR sky130_fd_sc_hd__fill_1
XFILLER_1_81 VPWR VGND VPWR VGND sky130_ef_sc_hd__decap_12
X_29_ _09_ _15_ VGND VGND VPWR VPWR _02_ sky130_fd_sc_hd__nor2_1
XFILLER_6_15 VPWR VGND VPWR VGND sky130_ef_sc_hd__decap_12
XTAP_TAPCELL_ROW_10_90 VGND VPWR sky130_fd_sc_hd__tapvpwrvgnd_1
XFILLER_25_189 VGND VGND VPWR VPWR sky130_fd_sc_hd__fill_1
XFILLER_25_167 VGND VGND VPWR VPWR sky130_fd_sc_hd__fill_1
XFILLER_15_57 VPWR VGND VPWR VGND sky130_ef_sc_hd__decap_12
XFILLER_16_189 VGND VGND VPWR VPWR sky130_fd_sc_hd__fill_1
XFILLER_16_123 VPWR VGND VPWR VGND sky130_ef_sc_hd__decap_12
XFILLER_21_181 VGND VGND VPWR VPWR sky130_fd_sc_hd__decap_8
XFILLER_3_27 VPWR VGND VPWR VGND sky130_ef_sc_hd__decap_12
XFILLER_13_137 VPWR VGND VPWR VGND sky130_ef_sc_hd__decap_12
XTAP_TAPCELL_ROW_3_70 VGND VPWR sky130_fd_sc_hd__tapvpwrvgnd_1
XFILLER_8_141 VPWR VGND VPWR VGND sky130_ef_sc_hd__decap_12
XFILLER_5_111 VGND VGND VPWR VPWR sky130_fd_sc_hd__fill_1
XFILLER_23_57 VPWR VGND VPWR VGND sky130_ef_sc_hd__decap_12
XTAP_TAPCELL_ROW_0_60 VGND VPWR sky130_fd_sc_hd__tapvpwrvgnd_1
XFILLER_9_15 VPWR VGND VPWR VGND sky130_ef_sc_hd__decap_12
XFILLER_1_93 VPWR VGND VPWR VGND sky130_ef_sc_hd__decap_12
X_28_ net14 _08_ VGND VGND VPWR VPWR _15_ sky130_fd_sc_hd__nor2_1
XTAP_TAPCELL_ROW_10_91 VGND VPWR sky130_fd_sc_hd__tapvpwrvgnd_1
XFILLER_19_165 VGND VGND VPWR VPWR sky130_fd_sc_hd__decap_3
XFILLER_6_27 VGND VGND VPWR VPWR sky130_fd_sc_hd__fill_1
XFILLER_25_113 VPWR VGND VPWR VGND sky130_ef_sc_hd__decap_12
XFILLER_15_69 VPWR VGND VPWR VGND sky130_ef_sc_hd__decap_12
XPHY_EDGE_ROW_19_Right_19 VGND VGND VPWR VPWR sky130_fd_sc_hd__decap_3
XFILLER_16_135 VGND VGND VPWR VPWR sky130_fd_sc_hd__decap_4
XPHY_EDGE_ROW_15_Left_43 VGND VGND VPWR VPWR sky130_fd_sc_hd__decap_3
XFILLER_7_81 VPWR VGND VPWR VGND sky130_ef_sc_hd__decap_12
XFILLER_13_149 VPWR VGND VPWR VGND sky130_ef_sc_hd__decap_12
XFILLER_3_39 VPWR VGND VPWR VGND sky130_ef_sc_hd__decap_12
XFILLER_13_105 VGND VGND VPWR VPWR sky130_fd_sc_hd__decap_6
XFILLER_8_153 VPWR VGND VPWR VGND sky130_ef_sc_hd__decap_12
XPHY_EDGE_ROW_0_Left_28 VGND VGND VPWR VPWR sky130_fd_sc_hd__decap_3
XFILLER_10_119 VGND VGND VPWR VPWR sky130_fd_sc_hd__fill_1
XFILLER_12_15 VPWR VGND VPWR VGND sky130_ef_sc_hd__decap_12
XFILLER_12_59 VPWR VGND VPWR VGND sky130_ef_sc_hd__decap_12
XFILLER_5_167 VGND VGND VPWR VPWR sky130_fd_sc_hd__fill_1
XFILLER_5_189 VGND VGND VPWR VPWR sky130_fd_sc_hd__fill_1
XFILLER_23_69 VPWR VGND VPWR VGND sky130_ef_sc_hd__decap_12
XFILLER_0_29 VPWR VGND VPWR VGND sky130_ef_sc_hd__decap_12
XFILLER_9_27 VPWR VGND VPWR VGND sky130_ef_sc_hd__decap_12
XTAP_TAPCELL_ROW_0_61 VGND VPWR sky130_fd_sc_hd__tapvpwrvgnd_1
XFILLER_1_181 VGND VGND VPWR VPWR sky130_fd_sc_hd__decap_8
X_44_ clknet_1_1__leaf_clk _07_ net2 VGND VGND VPWR VPWR net10 sky130_fd_sc_hd__dfrtp_1
XPHY_EDGE_ROW_3_Left_31 VGND VGND VPWR VPWR sky130_fd_sc_hd__decap_3
XFILLER_1_3 VPWR VGND VPWR VGND sky130_ef_sc_hd__decap_12
X_27_ _08_ _14_ VGND VGND VPWR VPWR _01_ sky130_fd_sc_hd__nor2_1
XFILLER_20_15 VPWR VGND VPWR VGND sky130_ef_sc_hd__decap_12
XFILLER_19_133 VPWR VGND VPWR VGND sky130_ef_sc_hd__decap_12
XFILLER_19_111 VGND VGND VPWR VPWR sky130_fd_sc_hd__fill_1
XFILLER_25_169 VPWR VGND VPWR VGND sky130_ef_sc_hd__decap_12
XFILLER_25_125 VPWR VGND VPWR VGND sky130_ef_sc_hd__decap_12
XFILLER_15_15 VPWR VGND VPWR VGND sky130_ef_sc_hd__decap_12
XFILLER_16_103 VGND VGND VPWR VPWR sky130_fd_sc_hd__fill_1
XFILLER_22_139 VGND VGND VPWR VPWR sky130_fd_sc_hd__fill_1
XFILLER_7_93 VPWR VGND VPWR VGND sky130_ef_sc_hd__decap_12
XFILLER_21_161 VGND VGND VPWR VPWR sky130_fd_sc_hd__decap_6
XFILLER_8_121 VPWR VGND VPWR VGND sky130_ef_sc_hd__decap_12
XFILLER_8_165 VPWR VGND VPWR VGND sky130_ef_sc_hd__decap_12
XTAP_TAPCELL_ROW_14_101 VGND VPWR sky130_fd_sc_hd__tapvpwrvgnd_1
XFILLER_12_27 VGND VGND VPWR VPWR sky130_fd_sc_hd__fill_1
XFILLER_12_49 VGND VGND VPWR VPWR sky130_fd_sc_hd__fill_2
XFILLER_5_113 VPWR VGND VPWR VGND sky130_ef_sc_hd__decap_12
XFILLER_23_15 VPWR VGND VPWR VGND sky130_ef_sc_hd__decap_12
XFILLER_4_83 VGND VGND VPWR VPWR sky130_fd_sc_hd__fill_1
XFILLER_9_39 VPWR VGND VPWR VGND sky130_ef_sc_hd__decap_12
XFILLER_13_81 VPWR VGND VPWR VGND sky130_ef_sc_hd__decap_12
X_43_ clknet_1_1__leaf_clk _06_ net2 VGND VGND VPWR VPWR net9 sky130_fd_sc_hd__dfrtp_1
XFILLER_18_15 VPWR VGND VPWR VGND sky130_ef_sc_hd__decap_12
XFILLER_27_3 VPWR VGND VPWR VGND sky130_ef_sc_hd__decap_12
XFILLER_20_27 VGND VGND VPWR VPWR sky130_fd_sc_hd__fill_1
XFILLER_1_51 VGND VGND VPWR VPWR sky130_fd_sc_hd__decap_4
X_26_ net18 net1 net15 VGND VGND VPWR VPWR _14_ sky130_fd_sc_hd__a21oi_1
XFILLER_19_189 VGND VGND VPWR VPWR sky130_fd_sc_hd__fill_1
XFILLER_19_145 VPWR VGND VPWR VGND sky130_ef_sc_hd__decap_12
XFILLER_6_29 VPWR VGND VPWR VGND sky130_ef_sc_hd__decap_12
XFILLER_10_82 VGND VGND VPWR VPWR sky130_fd_sc_hd__fill_2
XFILLER_25_137 VPWR VGND VPWR VGND sky130_ef_sc_hd__decap_12
XFILLER_15_27 VPWR VGND VPWR VGND sky130_ef_sc_hd__decap_12
XFILLER_16_115 VGND VGND VPWR VPWR sky130_fd_sc_hd__fill_1
XPHY_EDGE_ROW_1_Right_1 VGND VGND VPWR VPWR sky130_fd_sc_hd__decap_3
XFILLER_21_81 VPWR VGND VPWR VGND sky130_ef_sc_hd__decap_12
XTAP_TAPCELL_ROW_17_110 VGND VPWR sky130_fd_sc_hd__tapvpwrvgnd_1
XFILLER_15_181 VGND VGND VPWR VPWR sky130_fd_sc_hd__decap_8
XFILLER_26_15 VPWR VGND VPWR VGND sky130_ef_sc_hd__decap_12
XFILLER_8_133 VGND VGND VPWR VPWR sky130_fd_sc_hd__decap_6
XFILLER_8_177 VPWR VGND VPWR VGND sky130_ef_sc_hd__decap_12
XTAP_TAPCELL_ROW_14_102 VGND VPWR sky130_fd_sc_hd__tapvpwrvgnd_1
XFILLER_5_125 VPWR VGND VPWR VGND sky130_ef_sc_hd__decap_12
XFILLER_5_169 VPWR VGND VPWR VGND sky130_ef_sc_hd__decap_12
XFILLER_23_27 VPWR VGND VPWR VGND sky130_ef_sc_hd__decap_12
XFILLER_2_139 VGND VGND VPWR VPWR sky130_fd_sc_hd__fill_1
X_42_ clknet_1_1__leaf_clk _05_ net2 VGND VGND VPWR VPWR net8 sky130_fd_sc_hd__dfrtp_1
XFILLER_1_161 VGND VGND VPWR VPWR sky130_fd_sc_hd__decap_6
XFILLER_13_93 VPWR VGND VPWR VGND sky130_ef_sc_hd__decap_12
XFILLER_18_27 VGND VGND VPWR VPWR sky130_fd_sc_hd__fill_1
X_25_ net17 net1 VGND VGND VPWR VPWR _00_ sky130_fd_sc_hd__xor2_1
XFILLER_25_105 VGND VGND VPWR VPWR sky130_fd_sc_hd__decap_6
XFILLER_19_157 VGND VGND VPWR VPWR sky130_fd_sc_hd__decap_8
XFILLER_19_81 VPWR VGND VPWR VGND sky130_ef_sc_hd__decap_12
XFILLER_25_149 VPWR VGND VPWR VGND sky130_ef_sc_hd__decap_12
XFILLER_16_149 VPWR VGND VPWR VGND sky130_ef_sc_hd__decap_12
XFILLER_15_39 VPWR VGND VPWR VGND sky130_ef_sc_hd__decap_12
XFILLER_21_93 VPWR VGND VPWR VGND sky130_ef_sc_hd__decap_12
XTAP_TAPCELL_ROW_17_111 VGND VPWR sky130_fd_sc_hd__tapvpwrvgnd_1
Xclkbuf_0_clk clk VGND VGND VPWR VPWR clknet_0_clk sky130_fd_sc_hd__clkbuf_16
XFILLER_11_7 VPWR VGND VPWR VGND sky130_ef_sc_hd__decap_12
XFILLER_26_27 VGND VGND VPWR VPWR sky130_fd_sc_hd__fill_1
XPHY_EDGE_ROW_24_Right_24 VGND VGND VPWR VPWR sky130_fd_sc_hd__decap_3
XPHY_EDGE_ROW_15_Right_15 VGND VGND VPWR VPWR sky130_fd_sc_hd__decap_3
XFILLER_7_51 VGND VGND VPWR VPWR sky130_fd_sc_hd__decap_4
XTAP_TAPCELL_ROW_14_103 VGND VPWR sky130_fd_sc_hd__tapvpwrvgnd_1
XFILLER_8_189 VGND VGND VPWR VPWR sky130_fd_sc_hd__fill_1
XFILLER_12_141 VPWR VGND VPWR VGND sky130_ef_sc_hd__decap_12
XPHY_EDGE_ROW_19_Left_47 VGND VGND VPWR VPWR sky130_fd_sc_hd__decap_3
XFILLER_12_29 VPWR VGND VPWR VGND sky130_ef_sc_hd__decap_12
XFILLER_5_137 VPWR VGND VPWR VGND sky130_ef_sc_hd__decap_12
XFILLER_27_81 VGND VGND VPWR VPWR sky130_fd_sc_hd__decap_3
XFILLER_4_41 VPWR VGND VPWR VGND sky130_ef_sc_hd__decap_12
XFILLER_4_85 VPWR VGND VPWR VGND sky130_ef_sc_hd__decap_12
XFILLER_23_39 VPWR VGND VPWR VGND sky130_ef_sc_hd__decap_12
X_41_ clknet_1_0__leaf_clk _04_ net2 VGND VGND VPWR VPWR net7 sky130_fd_sc_hd__dfrtp_1
XFILLER_20_29 VPWR VGND VPWR VGND sky130_ef_sc_hd__decap_12
X_24_ net10 _13_ VGND VGND VPWR VPWR net11 sky130_fd_sc_hd__and2_1
XPHY_EDGE_ROW_7_Left_35 VGND VGND VPWR VPWR sky130_fd_sc_hd__decap_3
XFILLER_19_169 VPWR VGND VPWR VGND sky130_ef_sc_hd__decap_12
XFILLER_19_93 VPWR VGND VPWR VGND sky130_ef_sc_hd__decap_12
XFILLER_16_139 VGND VGND VPWR VPWR sky130_fd_sc_hd__fill_1
XFILLER_22_109 VPWR VGND VPWR VGND sky130_ef_sc_hd__decap_12
XTAP_TAPCELL_ROW_17_112 VGND VPWR sky130_fd_sc_hd__tapvpwrvgnd_1
XFILLER_15_161 VGND VGND VPWR VPWR sky130_fd_sc_hd__decap_6
XFILLER_16_83 VGND VGND VPWR VPWR sky130_fd_sc_hd__fill_1
XFILLER_12_153 VPWR VGND VPWR VGND sky130_ef_sc_hd__decap_12
XFILLER_5_105 VGND VGND VPWR VPWR sky130_fd_sc_hd__decap_6
XFILLER_5_149 VPWR VGND VPWR VGND sky130_ef_sc_hd__decap_12
XPHY_EDGE_ROW_20_Left_48 VGND VGND VPWR VPWR sky130_fd_sc_hd__decap_3
XFILLER_4_53 VPWR VGND VPWR VGND sky130_ef_sc_hd__decap_12
XFILLER_4_97 VPWR VGND VPWR VGND sky130_ef_sc_hd__decap_12
X_40_ clknet_1_0__leaf_clk _03_ net2 VGND VGND VPWR VPWR net6 sky130_fd_sc_hd__dfrtp_1
XFILLER_13_51 VGND VGND VPWR VPWR sky130_fd_sc_hd__decap_4
XFILLER_18_29 VPWR VGND VPWR VGND sky130_ef_sc_hd__decap_12
XFILLER_24_83 VGND VGND VPWR VPWR sky130_fd_sc_hd__fill_1
XPHY_EDGE_ROW_23_Left_51 VGND VGND VPWR VPWR sky130_fd_sc_hd__decap_3
X_23_ net6 net9 _09_ _11_ VGND VGND VPWR VPWR _13_ sky130_fd_sc_hd__and4_1
XFILLER_27_181 VGND VGND VPWR VPWR sky130_fd_sc_hd__decap_8
XFILLER_10_41 VPWR VGND VPWR VGND sky130_ef_sc_hd__decap_12
XFILLER_10_85 VGND VGND VPWR VPWR sky130_fd_sc_hd__fill_2
XFILLER_25_3 VPWR VGND VPWR VGND sky130_ef_sc_hd__decap_12
XFILLER_21_51 VGND VGND VPWR VPWR sky130_fd_sc_hd__decap_4
XFILLER_26_29 VPWR VGND VPWR VGND sky130_ef_sc_hd__decap_12
XPHY_EDGE_ROW_5_Right_5 VGND VGND VPWR VPWR sky130_fd_sc_hd__decap_3
XFILLER_12_121 VPWR VGND VPWR VGND sky130_ef_sc_hd__decap_12
XFILLER_12_165 VPWR VGND VPWR VGND sky130_ef_sc_hd__decap_12
XTAP_TAPCELL_ROW_20_119 VGND VPWR sky130_fd_sc_hd__tapvpwrvgnd_1
XFILLER_2_109 VPWR VGND VPWR VGND sky130_ef_sc_hd__decap_12
XFILLER_4_65 VPWR VGND VPWR VGND sky130_ef_sc_hd__decap_12
XTAP_TAPCELL_ROW_9_86 VGND VPWR sky130_fd_sc_hd__tapvpwrvgnd_1
X_22_ net6 _09_ _11_ VGND VGND VPWR VPWR _12_ sky130_fd_sc_hd__and3_1
XFILLER_1_55 VGND VGND VPWR VPWR sky130_fd_sc_hd__fill_1
XFILLER_19_105 VGND VGND VPWR VPWR sky130_fd_sc_hd__decap_6
XFILLER_10_53 VPWR VGND VPWR VGND sky130_ef_sc_hd__decap_12
XFILLER_18_3 VPWR VGND VPWR VGND sky130_ef_sc_hd__decap_12
XFILLER_24_141 VPWR VGND VPWR VGND sky130_ef_sc_hd__decap_12
XTAP_TAPCELL_ROW_23_128 VGND VPWR sky130_fd_sc_hd__tapvpwrvgnd_1
XFILLER_21_111 VGND VGND VPWR VPWR sky130_fd_sc_hd__fill_1
XPHY_EDGE_ROW_20_Right_20 VGND VGND VPWR VPWR sky130_fd_sc_hd__decap_3
XFILLER_16_85 VPWR VGND VPWR VGND sky130_ef_sc_hd__decap_12
XFILLER_16_41 VPWR VGND VPWR VGND sky130_ef_sc_hd__decap_12
XPHY_EDGE_ROW_11_Right_11 VGND VGND VPWR VPWR sky130_fd_sc_hd__decap_3
XFILLER_12_133 VGND VGND VPWR VPWR sky130_fd_sc_hd__decap_6
XFILLER_12_177 VPWR VGND VPWR VGND sky130_ef_sc_hd__decap_12
XFILLER_7_181 VGND VGND VPWR VPWR sky130_fd_sc_hd__decap_8
XFILLER_4_77 VGND VGND VPWR VPWR sky130_fd_sc_hd__decap_6
XTAP_TAPCELL_ROW_0_56 VGND VPWR sky130_fd_sc_hd__tapvpwrvgnd_1
XTAP_TAPCELL_ROW_9_87 VGND VPWR sky130_fd_sc_hd__tapvpwrvgnd_1
XFILLER_24_85 VPWR VGND VPWR VGND sky130_ef_sc_hd__decap_12
XFILLER_24_41 VPWR VGND VPWR VGND sky130_ef_sc_hd__decap_12
X_21_ net8 net7 VGND VGND VPWR VPWR _11_ sky130_fd_sc_hd__and2_1
XTAP_TAPCELL_ROW_6_77 VGND VPWR sky130_fd_sc_hd__tapvpwrvgnd_1
XTAP_TAPCELL_ROW_26_137 VGND VPWR sky130_fd_sc_hd__tapvpwrvgnd_1
XFILLER_24_153 VPWR VGND VPWR VGND sky130_ef_sc_hd__decap_12
XFILLER_16_109 VGND VGND VPWR VPWR sky130_fd_sc_hd__decap_6
XFILLER_15_120 VGND VGND VPWR VPWR sky130_fd_sc_hd__decap_8
XFILLER_7_55 VGND VGND VPWR VPWR sky130_fd_sc_hd__fill_1
XTAP_TAPCELL_ROW_23_129 VGND VPWR sky130_fd_sc_hd__tapvpwrvgnd_1
XFILLER_21_189 VGND VGND VPWR VPWR sky130_fd_sc_hd__fill_1
XFILLER_21_167 VGND VGND VPWR VPWR sky130_fd_sc_hd__fill_1
XFILLER_16_97 VGND VGND VPWR VPWR sky130_fd_sc_hd__decap_6
XFILLER_16_53 VPWR VGND VPWR VGND sky130_ef_sc_hd__decap_12
XFILLER_12_189 VGND VGND VPWR VPWR sky130_fd_sc_hd__fill_1
XFILLER_27_41 VPWR VGND VPWR VGND sky130_ef_sc_hd__decap_12
XFILLER_27_85 VPWR VGND VPWR VGND sky130_ef_sc_hd__decap_12
XFILLER_4_141 VPWR VGND VPWR VGND sky130_ef_sc_hd__decap_12
XTAP_TAPCELL_ROW_13_98 VGND VPWR sky130_fd_sc_hd__tapvpwrvgnd_1
XFILLER_1_111 VGND VGND VPWR VPWR sky130_fd_sc_hd__fill_1
XTAP_TAPCELL_ROW_0_57 VGND VPWR sky130_fd_sc_hd__tapvpwrvgnd_1
XFILLER_8_3 VPWR VGND VPWR VGND sky130_ef_sc_hd__decap_12
XTAP_TAPCELL_ROW_9_88 VGND VPWR sky130_fd_sc_hd__tapvpwrvgnd_1
XFILLER_24_97 VPWR VGND VPWR VGND sky130_ef_sc_hd__decap_12
XFILLER_24_53 VPWR VGND VPWR VGND sky130_ef_sc_hd__decap_12
X_20_ net6 _09_ VGND VGND VPWR VPWR _10_ sky130_fd_sc_hd__nand2_1
XFILLER_1_57 VPWR VGND VPWR VGND sky130_ef_sc_hd__decap_12
XFILLER_19_31 VPWR VGND VPWR VGND sky130_ef_sc_hd__decap_12
Xinput1 enable VGND VGND VPWR VPWR net1 sky130_fd_sc_hd__buf_1
XPHY_EDGE_ROW_27_Left_55 VGND VGND VPWR VPWR sky130_fd_sc_hd__decap_3
XTAP_TAPCELL_ROW_6_78 VGND VPWR sky130_fd_sc_hd__tapvpwrvgnd_1
XPHY_EDGE_ROW_11_Left_39 VGND VGND VPWR VPWR sky130_fd_sc_hd__decap_3
XTAP_TAPCELL_ROW_26_138 VGND VPWR sky130_fd_sc_hd__tapvpwrvgnd_1
XFILLER_24_121 VPWR VGND VPWR VGND sky130_ef_sc_hd__decap_12
XFILLER_24_165 VPWR VGND VPWR VGND sky130_ef_sc_hd__decap_12
XFILLER_23_3 VPWR VGND VPWR VGND sky130_ef_sc_hd__decap_12
XFILLER_21_113 VPWR VGND VPWR VGND sky130_ef_sc_hd__decap_12
XFILLER_16_65 VPWR VGND VPWR VGND sky130_ef_sc_hd__decap_12
XTAP_TAPCELL_ROW_3_68 VGND VPWR sky130_fd_sc_hd__tapvpwrvgnd_1
XFILLER_8_139 VGND VGND VPWR VPWR sky130_fd_sc_hd__fill_1
XFILLER_7_161 VGND VGND VPWR VPWR sky130_fd_sc_hd__decap_6
XPHY_EDGE_ROW_9_Right_9 VGND VGND VPWR VPWR sky130_fd_sc_hd__decap_3
XPHY_EDGE_ROW_14_Left_42 VGND VGND VPWR VPWR sky130_fd_sc_hd__decap_3
XFILLER_27_97 VPWR VGND VPWR VGND sky130_ef_sc_hd__decap_12
XFILLER_27_53 VGND VGND VPWR VPWR sky130_fd_sc_hd__decap_3
XFILLER_4_153 VPWR VGND VPWR VGND sky130_ef_sc_hd__decap_12
XTAP_TAPCELL_ROW_13_99 VGND VPWR sky130_fd_sc_hd__tapvpwrvgnd_1
XFILLER_1_189 VGND VGND VPWR VPWR sky130_fd_sc_hd__fill_1
XFILLER_1_167 VGND VGND VPWR VPWR sky130_fd_sc_hd__fill_1
XTAP_TAPCELL_ROW_0_58 VGND VPWR sky130_fd_sc_hd__tapvpwrvgnd_1
XFILLER_13_55 VGND VGND VPWR VPWR sky130_fd_sc_hd__fill_1
XFILLER_24_65 VPWR VGND VPWR VGND sky130_ef_sc_hd__decap_12
XFILLER_1_69 VPWR VGND VPWR VGND sky130_ef_sc_hd__decap_12
Xinput2 rst_n VGND VGND VPWR VPWR net2 sky130_fd_sc_hd__clkbuf_4
XTAP_TAPCELL_ROW_10_89 VGND VPWR sky130_fd_sc_hd__tapvpwrvgnd_1
XFILLER_27_141 VPWR VGND VPWR VGND sky130_ef_sc_hd__decap_12
XFILLER_19_43 VPWR VGND VPWR VGND sky130_ef_sc_hd__decap_12
XPHY_EDGE_ROW_2_Left_30 VGND VGND VPWR VPWR sky130_fd_sc_hd__decap_3
XTAP_TAPCELL_ROW_6_79 VGND VPWR sky130_fd_sc_hd__tapvpwrvgnd_1
XFILLER_18_141 VPWR VGND VPWR VGND sky130_ef_sc_hd__decap_12
XTAP_TAPCELL_ROW_26_139 VGND VPWR sky130_fd_sc_hd__tapvpwrvgnd_1
XFILLER_24_177 VPWR VGND VPWR VGND sky130_ef_sc_hd__decap_12
XFILLER_24_133 VGND VGND VPWR VPWR sky130_fd_sc_hd__decap_6
XFILLER_21_55 VGND VGND VPWR VPWR sky130_fd_sc_hd__fill_1
XFILLER_16_3 VPWR VGND VPWR VGND sky130_ef_sc_hd__decap_12
XFILLER_7_57 VPWR VGND VPWR VGND sky130_ef_sc_hd__decap_12
XFILLER_21_169 VPWR VGND VPWR VGND sky130_ef_sc_hd__decap_12
XFILLER_21_125 VPWR VGND VPWR VGND sky130_ef_sc_hd__decap_12
XFILLER_16_77 VGND VGND VPWR VPWR sky130_fd_sc_hd__decap_6
XTAP_TAPCELL_ROW_3_69 VGND VPWR sky130_fd_sc_hd__tapvpwrvgnd_1
XFILLER_4_121 VPWR VGND VPWR VGND sky130_ef_sc_hd__decap_12
XFILLER_4_165 VPWR VGND VPWR VGND sky130_ef_sc_hd__decap_12
XTAP_TAPCELL_ROW_0_59 VGND VPWR sky130_fd_sc_hd__tapvpwrvgnd_1
XFILLER_1_113 VPWR VGND VPWR VGND sky130_ef_sc_hd__decap_12
XFILLER_24_77 VGND VGND VPWR VPWR sky130_fd_sc_hd__decap_6
XFILLER_1_15 VPWR VGND VPWR VGND sky130_ef_sc_hd__decap_12
XPHY_EDGE_ROW_27_Right_27 VGND VGND VPWR VPWR sky130_fd_sc_hd__decap_3
XPHY_EDGE_ROW_18_Right_18 VGND VGND VPWR VPWR sky130_fd_sc_hd__decap_3
XFILLER_27_153 VPWR VGND VPWR VGND sky130_ef_sc_hd__decap_12
XFILLER_19_55 VGND VGND VPWR VPWR sky130_fd_sc_hd__fill_1
XFILLER_18_153 VPWR VGND VPWR VGND sky130_ef_sc_hd__decap_12
XFILLER_24_189 VGND VGND VPWR VPWR sky130_fd_sc_hd__fill_1
XFILLER_15_189 VGND VGND VPWR VPWR sky130_fd_sc_hd__fill_1
XFILLER_15_167 VGND VGND VPWR VPWR sky130_fd_sc_hd__fill_1
XFILLER_7_69 VPWR VGND VPWR VGND sky130_ef_sc_hd__decap_12
XFILLER_21_137 VPWR VGND VPWR VGND sky130_ef_sc_hd__decap_12
XPHY_EDGE_ROW_0_Right_0 VGND VGND VPWR VPWR sky130_fd_sc_hd__decap_3
XFILLER_11_181 VGND VGND VPWR VPWR sky130_fd_sc_hd__decap_8
XFILLER_4_15 VPWR VGND VPWR VGND sky130_ef_sc_hd__decap_12
XFILLER_4_133 VGND VGND VPWR VPWR sky130_fd_sc_hd__decap_6
XFILLER_4_177 VPWR VGND VPWR VGND sky130_ef_sc_hd__decap_12
XFILLER_1_125 VPWR VGND VPWR VGND sky130_ef_sc_hd__decap_12
XFILLER_13_57 VPWR VGND VPWR VGND sky130_ef_sc_hd__decap_12
XFILLER_1_169 VPWR VGND VPWR VGND sky130_ef_sc_hd__decap_12
XFILLER_1_27 VPWR VGND VPWR VGND sky130_ef_sc_hd__decap_12
XFILLER_6_3 VPWR VGND VPWR VGND sky130_ef_sc_hd__decap_12
XFILLER_27_165 VGND VGND VPWR VPWR sky130_fd_sc_hd__decap_3
XFILLER_27_121 VGND VGND VPWR VPWR sky130_fd_sc_hd__fill_1
XFILLER_18_165 VPWR VGND VPWR VGND sky130_ef_sc_hd__decap_12
XFILLER_21_57 VPWR VGND VPWR VGND sky130_ef_sc_hd__decap_12
XFILLER_7_15 VPWR VGND VPWR VGND sky130_ef_sc_hd__decap_12
XFILLER_21_149 VPWR VGND VPWR VGND sky130_ef_sc_hd__decap_12
XFILLER_21_105 VGND VGND VPWR VPWR sky130_fd_sc_hd__decap_6
XTAP_TAPCELL_ROW_7_80 VGND VPWR sky130_fd_sc_hd__tapvpwrvgnd_1
XFILLER_8_109 VPWR VGND VPWR VGND sky130_ef_sc_hd__decap_12
XFILLER_21_3 VPWR VGND VPWR VGND sky130_ef_sc_hd__decap_12
XTAP_TAPCELL_ROW_13_100 VGND VPWR sky130_fd_sc_hd__tapvpwrvgnd_1
XFILLER_4_27 VGND VGND VPWR VPWR sky130_fd_sc_hd__fill_1
XFILLER_4_189 VGND VGND VPWR VPWR sky130_fd_sc_hd__fill_1
XPHY_EDGE_ROW_18_Left_46 VGND VGND VPWR VPWR sky130_fd_sc_hd__decap_3
XFILLER_13_69 VPWR VGND VPWR VGND sky130_ef_sc_hd__decap_12
XFILLER_1_137 VPWR VGND VPWR VGND sky130_ef_sc_hd__decap_12
XFILLER_0_181 VGND VGND VPWR VPWR sky130_fd_sc_hd__decap_8
XFILLER_5_81 VPWR VGND VPWR VGND sky130_ef_sc_hd__decap_12
XFILLER_1_39 VPWR VGND VPWR VGND sky130_ef_sc_hd__decap_12
XFILLER_19_57 VPWR VGND VPWR VGND sky130_ef_sc_hd__decap_12
XFILLER_10_15 VPWR VGND VPWR VGND sky130_ef_sc_hd__decap_12
XFILLER_18_177 VPWR VGND VPWR VGND sky130_ef_sc_hd__decap_12
XFILLER_21_69 VPWR VGND VPWR VGND sky130_ef_sc_hd__decap_12
XFILLER_15_169 VPWR VGND VPWR VGND sky130_ef_sc_hd__decap_12
XPHY_EDGE_ROW_6_Left_34 VGND VGND VPWR VPWR sky130_fd_sc_hd__decap_3
XFILLER_7_27 VPWR VGND VPWR VGND sky130_ef_sc_hd__decap_12
XTAP_TAPCELL_ROW_7_81 VGND VPWR sky130_fd_sc_hd__tapvpwrvgnd_1
XFILLER_12_139 VGND VGND VPWR VPWR sky130_fd_sc_hd__fill_1
XFILLER_27_57 VPWR VGND VPWR VGND sky130_ef_sc_hd__decap_12
XFILLER_17_90 VPWR VGND VPWR VGND sky130_ef_sc_hd__decap_12
XTAP_TAPCELL_ROW_4_71 VGND VPWR sky130_fd_sc_hd__tapvpwrvgnd_1
XFILLER_13_15 VPWR VGND VPWR VGND sky130_ef_sc_hd__decap_12
XFILLER_1_149 VPWR VGND VPWR VGND sky130_ef_sc_hd__decap_12
XFILLER_1_105 VGND VGND VPWR VPWR sky130_fd_sc_hd__decap_6
XFILLER_5_93 VPWR VGND VPWR VGND sky130_ef_sc_hd__decap_12
XFILLER_19_69 VPWR VGND VPWR VGND sky130_ef_sc_hd__decap_12
XFILLER_10_27 VGND VGND VPWR VPWR sky130_fd_sc_hd__fill_1
XFILLER_27_189 VGND VGND VPWR VPWR sky130_fd_sc_hd__fill_1
XPHY_EDGE_ROW_23_Right_23 VGND VGND VPWR VPWR sky130_fd_sc_hd__decap_3
XPHY_EDGE_ROW_14_Right_14 VGND VGND VPWR VPWR sky130_fd_sc_hd__decap_3
XPHY_EDGE_ROW_22_Left_50 VGND VGND VPWR VPWR sky130_fd_sc_hd__decap_3
XFILLER_18_189 VGND VGND VPWR VPWR sky130_fd_sc_hd__fill_1
XFILLER_2_83 VGND VGND VPWR VPWR sky130_fd_sc_hd__fill_1
XFILLER_23_181 VGND VGND VPWR VPWR sky130_fd_sc_hd__decap_8
XFILLER_21_15 VPWR VGND VPWR VGND sky130_ef_sc_hd__decap_12
XTAP_TAPCELL_ROW_11_92 VGND VPWR sky130_fd_sc_hd__tapvpwrvgnd_1
XFILLER_7_39 VPWR VGND VPWR VGND sky130_ef_sc_hd__decap_12
XTAP_TAPCELL_ROW_7_82 VGND VPWR sky130_fd_sc_hd__tapvpwrvgnd_1
XFILLER_16_15 VPWR VGND VPWR VGND sky130_ef_sc_hd__decap_12
XFILLER_7_111 VGND VGND VPWR VPWR sky130_fd_sc_hd__fill_1
XPHY_EDGE_ROW_4_Right_4 VGND VGND VPWR VPWR sky130_fd_sc_hd__decap_3
XFILLER_27_69 VPWR VGND VPWR VGND sky130_ef_sc_hd__decap_12
XFILLER_4_29 VPWR VGND VPWR VGND sky130_ef_sc_hd__decap_12
XTAP_TAPCELL_ROW_4_72 VGND VPWR sky130_fd_sc_hd__tapvpwrvgnd_1
XFILLER_13_27 VPWR VGND VPWR VGND sky130_ef_sc_hd__decap_12
XFILLER_24_15 VPWR VGND VPWR VGND sky130_ef_sc_hd__decap_12
XTAP_TAPCELL_ROW_1_62 VGND VPWR sky130_fd_sc_hd__tapvpwrvgnd_1
XFILLER_27_113 VGND VGND VPWR VPWR sky130_fd_sc_hd__decap_8
XFILLER_4_3 VPWR VGND VPWR VGND sky130_ef_sc_hd__decap_12
XFILLER_18_113 VPWR VGND VPWR VGND sky130_ef_sc_hd__decap_12
XFILLER_21_27 VPWR VGND VPWR VGND sky130_ef_sc_hd__decap_12
XTAP_TAPCELL_ROW_11_93 VGND VPWR sky130_fd_sc_hd__tapvpwrvgnd_1
XFILLER_15_149 VPWR VGND VPWR VGND sky130_ef_sc_hd__decap_12
XFILLER_11_60 VGND VGND VPWR VPWR sky130_fd_sc_hd__decap_4
XTAP_TAPCELL_ROW_22_125 VGND VPWR sky130_fd_sc_hd__tapvpwrvgnd_1
XFILLER_20_141 VPWR VGND VPWR VGND sky130_ef_sc_hd__decap_12
XFILLER_16_27 VGND VGND VPWR VPWR sky130_fd_sc_hd__fill_1
XFILLER_20_185 VGND VGND VPWR VPWR sky130_fd_sc_hd__fill_1
XFILLER_7_167 VGND VGND VPWR VPWR sky130_fd_sc_hd__fill_1
XFILLER_7_189 VGND VGND VPWR VPWR sky130_fd_sc_hd__fill_1
XFILLER_8_83 VGND VGND VPWR VPWR sky130_fd_sc_hd__fill_1
XFILLER_27_15 VPWR VGND VPWR VGND sky130_ef_sc_hd__decap_12
XFILLER_3_181 VGND VGND VPWR VPWR sky130_fd_sc_hd__decap_8
XTAP_TAPCELL_ROW_4_73 VGND VPWR sky130_fd_sc_hd__tapvpwrvgnd_1
XFILLER_13_39 VPWR VGND VPWR VGND sky130_ef_sc_hd__decap_12
XFILLER_24_27 VGND VGND VPWR VPWR sky130_fd_sc_hd__fill_1
XFILLER_5_51 VGND VGND VPWR VPWR sky130_fd_sc_hd__decap_4
XTAP_TAPCELL_ROW_1_63 VGND VPWR sky130_fd_sc_hd__tapvpwrvgnd_1
XFILLER_27_169 VPWR VGND VPWR VGND sky130_ef_sc_hd__decap_12
XFILLER_10_29 VPWR VGND VPWR VGND sky130_ef_sc_hd__decap_12
XFILLER_25_81 VPWR VGND VPWR VGND sky130_ef_sc_hd__decap_12
XFILLER_18_125 VPWR VGND VPWR VGND sky130_ef_sc_hd__decap_12
XFILLER_24_139 VGND VGND VPWR VPWR sky130_fd_sc_hd__fill_1
XFILLER_21_39 VPWR VGND VPWR VGND sky130_ef_sc_hd__decap_12
XFILLER_2_85 VPWR VGND VPWR VGND sky130_ef_sc_hd__decap_12
XFILLER_2_41 VPWR VGND VPWR VGND sky130_ef_sc_hd__decap_12
XTAP_TAPCELL_ROW_25_134 VGND VPWR sky130_fd_sc_hd__tapvpwrvgnd_1
XFILLER_23_161 VGND VGND VPWR VPWR sky130_fd_sc_hd__decap_6
XFILLER_15_128 VGND VGND VPWR VPWR sky130_fd_sc_hd__fill_1
XFILLER_11_94 VPWR VGND VPWR VGND sky130_ef_sc_hd__decap_12
XTAP_TAPCELL_ROW_11_94 VGND VPWR sky130_fd_sc_hd__tapvpwrvgnd_1
X_39_ clknet_1_0__leaf_clk _02_ net2 VGND VGND VPWR VPWR net5 sky130_fd_sc_hd__dfrtp_1
Xclkbuf_1_0__f_clk clknet_0_clk VGND VGND VPWR VPWR clknet_1_0__leaf_clk sky130_fd_sc_hd__clkbuf_16
XTAP_TAPCELL_ROW_22_126 VGND VPWR sky130_fd_sc_hd__tapvpwrvgnd_1
XFILLER_20_153 VPWR VGND VPWR VGND sky130_ef_sc_hd__decap_12
XFILLER_12_109 VPWR VGND VPWR VGND sky130_ef_sc_hd__decap_12