*SPEF "ieee 1481-1999"
*DESIGN "counter"
*DATE "19:51:36 Thursday June 26, 2025"
*VENDOR "The OpenROAD Project"
*PROGRAM "OpenROAD"
*VERSION "2.0-unstable-2025-03-01_e794373d44ac5421f0633d8dda7e5c59e8fe79bf"
*DESIGN_FLOW "NAME_SCOPE LOCAL" "PIN_CAP NONE"
*DIVIDER /
*DELIMITER :
*BUS_DELIMITER []
*T_UNIT 1 NS
*C_UNIT 1 PF
*R_UNIT 1 OHM
*L_UNIT 1 HENRY

*NAME_MAP
*3 clk
*4 count[0]
*5 count[1]
*6 count[2]
*7 count[3]
*8 count[4]
*9 count[5]
*10 count[6]
*11 count[7]
*12 enable
*13 overflow
*14 rst_n
*15 _00_
*16 _01_
*17 _02_
*18 _03_
*19 _04_
*20 _05_
*21 _06_
*22 _07_
*23 _08_
*24 _09_
*25 _10_
*26 _11_
*27 _12_
*28 _13_
*29 _14_
*30 _15_
*31 _16_
*32 _17_
*33 clknet_0_clk
*34 clknet_1_0__leaf_clk
*35 clknet_1_1__leaf_clk
*36 net1
*37 net10
*38 net11
*39 net12
*40 net13
*41 net14
*42 net15
*43 net2
*44 net3
*45 net4
*46 net5
*47 net6
*48 net7
*49 net8
*50 net9
*51 FILLER_0_109
*52 FILLER_0_113
*53 FILLER_0_125
*54 FILLER_0_137
*55 FILLER_0_141
*56 FILLER_0_15
*57 FILLER_0_153
*58 FILLER_0_165
*59 FILLER_0_169
*60 FILLER_0_181
*61 FILLER_0_189
*62 FILLER_0_197
*63 FILLER_0_203
*64 FILLER_0_215
*65 FILLER_0_223
*66 FILLER_0_225
*67 FILLER_0_237
*68 FILLER_0_249
*69 FILLER_0_253
*70 FILLER_0_265
*71 FILLER_0_27
*72 FILLER_0_277
*73 FILLER_0_281
*74 FILLER_0_29
*75 FILLER_0_293
*76 FILLER_0_3
*77 FILLER_0_305
*78 FILLER_0_309
*79 FILLER_0_321
*80 FILLER_0_333
*81 FILLER_0_337
*82 FILLER_0_349
*83 FILLER_0_361
*84 FILLER_0_365
*85 FILLER_0_377
*86 FILLER_0_389
*87 FILLER_0_393
*88 FILLER_0_405
*89 FILLER_0_41
*90 FILLER_0_53
*91 FILLER_0_57
*92 FILLER_0_69
*93 FILLER_0_81
*94 FILLER_0_85
*95 FILLER_0_97
*96 FILLER_10_109
*97 FILLER_10_121
*98 FILLER_10_133
*99 FILLER_10_139
*100 FILLER_10_141
*101 FILLER_10_15
*102 FILLER_10_153
*103 FILLER_10_165
*104 FILLER_10_177
*105 FILLER_10_189
*106 FILLER_10_195
*107 FILLER_10_197
*108 FILLER_10_209
*109 FILLER_10_221
*110 FILLER_10_233
*111 FILLER_10_245
*112 FILLER_10_251
*113 FILLER_10_253
*114 FILLER_10_265
*115 FILLER_10_27
*116 FILLER_10_277
*117 FILLER_10_289
*118 FILLER_10_29
*119 FILLER_10_3
*120 FILLER_10_301
*121 FILLER_10_307
*122 FILLER_10_309
*123 FILLER_10_321
*124 FILLER_10_333
*125 FILLER_10_345
*126 FILLER_10_357
*127 FILLER_10_363
*128 FILLER_10_365
*129 FILLER_10_377
*130 FILLER_10_389
*131 FILLER_10_401
*132 FILLER_10_41
*133 FILLER_10_53
*134 FILLER_10_65
*135 FILLER_10_77
*136 FILLER_10_83
*137 FILLER_10_85
*138 FILLER_10_97
*139 FILLER_11_105
*140 FILLER_11_111
*141 FILLER_11_113
*142 FILLER_11_125
*143 FILLER_11_137
*144 FILLER_11_149
*145 FILLER_11_15
*146 FILLER_11_161
*147 FILLER_11_167
*148 FILLER_11_169
*149 FILLER_11_181
*150 FILLER_11_193
*151 FILLER_11_205
*152 FILLER_11_217
*153 FILLER_11_223
*154 FILLER_11_225
*155 FILLER_11_237
*156 FILLER_11_249
*157 FILLER_11_261
*158 FILLER_11_27
*159 FILLER_11_273
*160 FILLER_11_279
*161 FILLER_11_281
*162 FILLER_11_293
*163 FILLER_11_3
*164 FILLER_11_305
*165 FILLER_11_317
*166 FILLER_11_329
*167 FILLER_11_335
*168 FILLER_11_337
*169 FILLER_11_349
*170 FILLER_11_361
*171 FILLER_11_373
*172 FILLER_11_385
*173 FILLER_11_39
*174 FILLER_11_391
*175 FILLER_11_393
*176 FILLER_11_405
*177 FILLER_11_51
*178 FILLER_11_55
*179 FILLER_11_57
*180 FILLER_11_69
*181 FILLER_11_81
*182 FILLER_11_93
*183 FILLER_12_109
*184 FILLER_12_121
*185 FILLER_12_133
*186 FILLER_12_139
*187 FILLER_12_141
*188 FILLER_12_15
*189 FILLER_12_153
*190 FILLER_12_165
*191 FILLER_12_177
*192 FILLER_12_189
*193 FILLER_12_195
*194 FILLER_12_197
*195 FILLER_12_209
*196 FILLER_12_221
*197 FILLER_12_233
*198 FILLER_12_245
*199 FILLER_12_251
*200 FILLER_12_253
*201 FILLER_12_265
*202 FILLER_12_27
*203 FILLER_12_277
*204 FILLER_12_289
*205 FILLER_12_29
*206 FILLER_12_3
*207 FILLER_12_301
*208 FILLER_12_307
*209 FILLER_12_309
*210 FILLER_12_321
*211 FILLER_12_333
*212 FILLER_12_345
*213 FILLER_12_357
*214 FILLER_12_363
*215 FILLER_12_365
*216 FILLER_12_377
*217 FILLER_12_389
*218 FILLER_12_401
*219 FILLER_12_41
*220 FILLER_12_53
*221 FILLER_12_65
*222 FILLER_12_77
*223 FILLER_12_83
*224 FILLER_12_85
*225 FILLER_12_97
*226 FILLER_13_105
*227 FILLER_13_111
*228 FILLER_13_113
*229 FILLER_13_125
*230 FILLER_13_137
*231 FILLER_13_149
*232 FILLER_13_15
*233 FILLER_13_161
*234 FILLER_13_167
*235 FILLER_13_169
*236 FILLER_13_181
*237 FILLER_13_193
*238 FILLER_13_205
*239 FILLER_13_217
*240 FILLER_13_223
*241 FILLER_13_225
*242 FILLER_13_237
*243 FILLER_13_249
*244 FILLER_13_261
*245 FILLER_13_27
*246 FILLER_13_273
*247 FILLER_13_279
*248 FILLER_13_281
*249 FILLER_13_293
*250 FILLER_13_3
*251 FILLER_13_305
*252 FILLER_13_317
*253 FILLER_13_329
*254 FILLER_13_335
*255 FILLER_13_337
*256 FILLER_13_349
*257 FILLER_13_361
*258 FILLER_13_373
*259 FILLER_13_385
*260 FILLER_13_39
*261 FILLER_13_391
*262 FILLER_13_393
*263 FILLER_13_405
*264 FILLER_13_51
*265 FILLER_13_55
*266 FILLER_13_57
*267 FILLER_13_69
*268 FILLER_13_81
*269 FILLER_13_93
*270 FILLER_14_109
*271 FILLER_14_121
*272 FILLER_14_133
*273 FILLER_14_139
*274 FILLER_14_141
*275 FILLER_14_15
*276 FILLER_14_153
*277 FILLER_14_165
*278 FILLER_14_177
*279 FILLER_14_189
*280 FILLER_14_195
*281 FILLER_14_197
*282 FILLER_14_209
*283 FILLER_14_221
*284 FILLER_14_233
*285 FILLER_14_245
*286 FILLER_14_251
*287 FILLER_14_253
*288 FILLER_14_265
*289 FILLER_14_27
*290 FILLER_14_277
*291 FILLER_14_289
*292 FILLER_14_29
*293 FILLER_14_3
*294 FILLER_14_301
*295 FILLER_14_307
*296 FILLER_14_309
*297 FILLER_14_321
*298 FILLER_14_333
*299 FILLER_14_345
*300 FILLER_14_357
*301 FILLER_14_363
*302 FILLER_14_365
*303 FILLER_14_377
*304 FILLER_14_389
*305 FILLER_14_401
*306 FILLER_14_41
*307 FILLER_14_53
*308 FILLER_14_65
*309 FILLER_14_77
*310 FILLER_14_83
*311 FILLER_14_85
*312 FILLER_14_97
*313 FILLER_15_105
*314 FILLER_15_111
*315 FILLER_15_113
*316 FILLER_15_125
*317 FILLER_15_137
*318 FILLER_15_149
*319 FILLER_15_15
*320 FILLER_15_161
*321 FILLER_15_167
*322 FILLER_15_169
*323 FILLER_15_181
*324 FILLER_15_193
*325 FILLER_15_205
*326 FILLER_15_217
*327 FILLER_15_223
*328 FILLER_15_225
*329 FILLER_15_237
*330 FILLER_15_249
*331 FILLER_15_261
*332 FILLER_15_27
*333 FILLER_15_273
*334 FILLER_15_279
*335 FILLER_15_281
*336 FILLER_15_293
*337 FILLER_15_3
*338 FILLER_15_305
*339 FILLER_15_317
*340 FILLER_15_329
*341 FILLER_15_335
*342 FILLER_15_337
*343 FILLER_15_349
*344 FILLER_15_361
*345 FILLER_15_373
*346 FILLER_15_385
*347 FILLER_15_39
*348 FILLER_15_391
*349 FILLER_15_393
*350 FILLER_15_405
*351 FILLER_15_51
*352 FILLER_15_55
*353 FILLER_15_57
*354 FILLER_15_69
*355 FILLER_15_81
*356 FILLER_15_93
*357 FILLER_16_109
*358 FILLER_16_121
*359 FILLER_16_133
*360 FILLER_16_139
*361 FILLER_16_141
*362 FILLER_16_15
*363 FILLER_16_153
*364 FILLER_16_165
*365 FILLER_16_177
*366 FILLER_16_189
*367 FILLER_16_195
*368 FILLER_16_197
*369 FILLER_16_209
*370 FILLER_16_221
*371 FILLER_16_233
*372 FILLER_16_245
*373 FILLER_16_251
*374 FILLER_16_253
*375 FILLER_16_265
*376 FILLER_16_27
*377 FILLER_16_277
*378 FILLER_16_289
*379 FILLER_16_29
*380 FILLER_16_3
*381 FILLER_16_301
*382 FILLER_16_307
*383 FILLER_16_309
*384 FILLER_16_321
*385 FILLER_16_333
*386 FILLER_16_345
*387 FILLER_16_357
*388 FILLER_16_363
*389 FILLER_16_365
*390 FILLER_16_377
*391 FILLER_16_389
*392 FILLER_16_401
*393 FILLER_16_41
*394 FILLER_16_53
*395 FILLER_16_65
*396 FILLER_16_77
*397 FILLER_16_83
*398 FILLER_16_85
*399 FILLER_16_97
*400 FILLER_17_105
*401 FILLER_17_111
*402 FILLER_17_113
*403 FILLER_17_125
*404 FILLER_17_137
*405 FILLER_17_149
*406 FILLER_17_15
*407 FILLER_17_161
*408 FILLER_17_167
*409 FILLER_17_169
*410 FILLER_17_181
*411 FILLER_17_193
*412 FILLER_17_205
*413 FILLER_17_217
*414 FILLER_17_223
*415 FILLER_17_225
*416 FILLER_17_237
*417 FILLER_17_249
*418 FILLER_17_261
*419 FILLER_17_27
*420 FILLER_17_273
*421 FILLER_17_279
*422 FILLER_17_281
*423 FILLER_17_293
*424 FILLER_17_3
*425 FILLER_17_305
*426 FILLER_17_317
*427 FILLER_17_329
*428 FILLER_17_335
*429 FILLER_17_337
*430 FILLER_17_349
*431 FILLER_17_361
*432 FILLER_17_373
*433 FILLER_17_385
*434 FILLER_17_39
*435 FILLER_17_391
*436 FILLER_17_393
*437 FILLER_17_405
*438 FILLER_17_51
*439 FILLER_17_55
*440 FILLER_17_57
*441 FILLER_17_69
*442 FILLER_17_81
*443 FILLER_17_93
*444 FILLER_18_109
*445 FILLER_18_121
*446 FILLER_18_133
*447 FILLER_18_139
*448 FILLER_18_141
*449 FILLER_18_15
*450 FILLER_18_153
*451 FILLER_18_165
*452 FILLER_18_177
*453 FILLER_18_189
*454 FILLER_18_195
*455 FILLER_18_197
*456 FILLER_18_209
*457 FILLER_18_221
*458 FILLER_18_233
*459 FILLER_18_245
*460 FILLER_18_251
*461 FILLER_18_253
*462 FILLER_18_265
*463 FILLER_18_27
*464 FILLER_18_277
*465 FILLER_18_289
*466 FILLER_18_29
*467 FILLER_18_3
*468 FILLER_18_301
*469 FILLER_18_307
*470 FILLER_18_309
*471 FILLER_18_321
*472 FILLER_18_333
*473 FILLER_18_345
*474 FILLER_18_357
*475 FILLER_18_363
*476 FILLER_18_365
*477 FILLER_18_377
*478 FILLER_18_389
*479 FILLER_18_401
*480 FILLER_18_41
*481 FILLER_18_53
*482 FILLER_18_65
*483 FILLER_18_77
*484 FILLER_18_83
*485 FILLER_18_85
*486 FILLER_18_97
*487 FILLER_19_105
*488 FILLER_19_111
*489 FILLER_19_113
*490 FILLER_19_125
*491 FILLER_19_137
*492 FILLER_19_149
*493 FILLER_19_15
*494 FILLER_19_161
*495 FILLER_19_167
*496 FILLER_19_169
*497 FILLER_19_181
*498 FILLER_19_193
*499 FILLER_19_205
*500 FILLER_19_217
*501 FILLER_19_223
*502 FILLER_19_225
*503 FILLER_19_237
*504 FILLER_19_249
*505 FILLER_19_261
*506 FILLER_19_27
*507 FILLER_19_273
*508 FILLER_19_279
*509 FILLER_19_281
*510 FILLER_19_293
*511 FILLER_19_3
*512 FILLER_19_305
*513 FILLER_19_317
*514 FILLER_19_329
*515 FILLER_19_335
*516 FILLER_19_337
*517 FILLER_19_349
*518 FILLER_19_361
*519 FILLER_19_373
*520 FILLER_19_385
*521 FILLER_19_39
*522 FILLER_19_391
*523 FILLER_19_393
*524 FILLER_19_405
*525 FILLER_19_51
*526 FILLER_19_55
*527 FILLER_19_57
*528 FILLER_19_69
*529 FILLER_19_81
*530 FILLER_19_93
*531 FILLER_1_105
*532 FILLER_1_111
*533 FILLER_1_113
*534 FILLER_1_125
*535 FILLER_1_137
*536 FILLER_1_149
*537 FILLER_1_15
*538 FILLER_1_161
*539 FILLER_1_167
*540 FILLER_1_169
*541 FILLER_1_181
*542 FILLER_1_193
*543 FILLER_1_205
*544 FILLER_1_217
*545 FILLER_1_223
*546 FILLER_1_225
*547 FILLER_1_237
*548 FILLER_1_249
*549 FILLER_1_261
*550 FILLER_1_27
*551 FILLER_1_273
*552 FILLER_1_279
*553 FILLER_1_281
*554 FILLER_1_293
*555 FILLER_1_3
*556 FILLER_1_305
*557 FILLER_1_317
*558 FILLER_1_329
*559 FILLER_1_335
*560 FILLER_1_337
*561 FILLER_1_349
*562 FILLER_1_361
*563 FILLER_1_373
*564 FILLER_1_385
*565 FILLER_1_39
*566 FILLER_1_391
*567 FILLER_1_393
*568 FILLER_1_405
*569 FILLER_1_51
*570 FILLER_1_55
*571 FILLER_1_57
*572 FILLER_1_69
*573 FILLER_1_81
*574 FILLER_1_93
*575 FILLER_20_109
*576 FILLER_20_121
*577 FILLER_20_133
*578 FILLER_20_139
*579 FILLER_20_141
*580 FILLER_20_15
*581 FILLER_20_153
*582 FILLER_20_165
*583 FILLER_20_177
*584 FILLER_20_189
*585 FILLER_20_195
*586 FILLER_20_197
*587 FILLER_20_209
*588 FILLER_20_221
*589 FILLER_20_233
*590 FILLER_20_245
*591 FILLER_20_251
*592 FILLER_20_253
*593 FILLER_20_265
*594 FILLER_20_27
*595 FILLER_20_277
*596 FILLER_20_289
*597 FILLER_20_29
*598 FILLER_20_3
*599 FILLER_20_301
*600 FILLER_20_307
*601 FILLER_20_309
*602 FILLER_20_321
*603 FILLER_20_333
*604 FILLER_20_345
*605 FILLER_20_357
*606 FILLER_20_363
*607 FILLER_20_365
*608 FILLER_20_377
*609 FILLER_20_389
*610 FILLER_20_401
*611 FILLER_20_41
*612 FILLER_20_53
*613 FILLER_20_65
*614 FILLER_20_77
*615 FILLER_20_83
*616 FILLER_20_85
*617 FILLER_20_97
*618 FILLER_21_105
*619 FILLER_21_111
*620 FILLER_21_113
*621 FILLER_21_125
*622 FILLER_21_137
*623 FILLER_21_149
*624 FILLER_21_15
*625 FILLER_21_161
*626 FILLER_21_167
*627 FILLER_21_169
*628 FILLER_21_181
*629 FILLER_21_193
*630 FILLER_21_205
*631 FILLER_21_217
*632 FILLER_21_223
*633 FILLER_21_225
*634 FILLER_21_237
*635 FILLER_21_249
*636 FILLER_21_261
*637 FILLER_21_27
*638 FILLER_21_273
*639 FILLER_21_279
*640 FILLER_21_281
*641 FILLER_21_293
*642 FILLER_21_3
*643 FILLER_21_305
*644 FILLER_21_317
*645 FILLER_21_329
*646 FILLER_21_335
*647 FILLER_21_337
*648 FILLER_21_349
*649 FILLER_21_361
*650 FILLER_21_373
*651 FILLER_21_385
*652 FILLER_21_39
*653 FILLER_21_391
*654 FILLER_21_393
*655 FILLER_21_405
*656 FILLER_21_51
*657 FILLER_21_55
*658 FILLER_21_57
*659 FILLER_21_69
*660 FILLER_21_81
*661 FILLER_21_93
*662 FILLER_22_109
*663 FILLER_22_121
*664 FILLER_22_133
*665 FILLER_22_139
*666 FILLER_22_141
*667 FILLER_22_15
*668 FILLER_22_153
*669 FILLER_22_165
*670 FILLER_22_177
*671 FILLER_22_189
*672 FILLER_22_195
*673 FILLER_22_197
*674 FILLER_22_209
*675 FILLER_22_221
*676 FILLER_22_233
*677 FILLER_22_245
*678 FILLER_22_251
*679 FILLER_22_253
*680 FILLER_22_265
*681 FILLER_22_27
*682 FILLER_22_277
*683 FILLER_22_289
*684 FILLER_22_29
*685 FILLER_22_3
*686 FILLER_22_301
*687 FILLER_22_307
*688 FILLER_22_309
*689 FILLER_22_321
*690 FILLER_22_333
*691 FILLER_22_345
*692 FILLER_22_357
*693 FILLER_22_363
*694 FILLER_22_365
*695 FILLER_22_377
*696 FILLER_22_389
*697 FILLER_22_401
*698 FILLER_22_41
*699 FILLER_22_53
*700 FILLER_22_65
*701 FILLER_22_77
*702 FILLER_22_83
*703 FILLER_22_85
*704 FILLER_22_97
*705 FILLER_23_105
*706 FILLER_23_111
*707 FILLER_23_113
*708 FILLER_23_125
*709 FILLER_23_137
*710 FILLER_23_149
*711 FILLER_23_15
*712 FILLER_23_161
*713 FILLER_23_167
*714 FILLER_23_169
*715 FILLER_23_181
*716 FILLER_23_193
*717 FILLER_23_205
*718 FILLER_23_217
*719 FILLER_23_223
*720 FILLER_23_225
*721 FILLER_23_237
*722 FILLER_23_249
*723 FILLER_23_261
*724 FILLER_23_27
*725 FILLER_23_273
*726 FILLER_23_279
*727 FILLER_23_281
*728 FILLER_23_293
*729 FILLER_23_3
*730 FILLER_23_305
*731 FILLER_23_317
*732 FILLER_23_329
*733 FILLER_23_335
*734 FILLER_23_337
*735 FILLER_23_349
*736 FILLER_23_361
*737 FILLER_23_373
*738 FILLER_23_385
*739 FILLER_23_39
*740 FILLER_23_391
*741 FILLER_23_393
*742 FILLER_23_405
*743 FILLER_23_51
*744 FILLER_23_55
*745 FILLER_23_57
*746 FILLER_23_69
*747 FILLER_23_81
*748 FILLER_23_93
*749 FILLER_24_109
*750 FILLER_24_121
*751 FILLER_24_133
*752 FILLER_24_139
*753 FILLER_24_141
*754 FILLER_24_15
*755 FILLER_24_153
*756 FILLER_24_165
*757 FILLER_24_177
*758 FILLER_24_189
*759 FILLER_24_195
*760 FILLER_24_197
*761 FILLER_24_201
*762 FILLER_24_225
*763 FILLER_24_237
*764 FILLER_24_249
*765 FILLER_24_253
*766 FILLER_24_265
*767 FILLER_24_27
*768 FILLER_24_277
*769 FILLER_24_289
*770 FILLER_24_29
*771 FILLER_24_3
*772 FILLER_24_301
*773 FILLER_24_307
*774 FILLER_24_309
*775 FILLER_24_321
*776 FILLER_24_333
*777 FILLER_24_345
*778 FILLER_24_357
*779 FILLER_24_363
*780 FILLER_24_365
*781 FILLER_24_377
*782 FILLER_24_389
*783 FILLER_24_401
*784 FILLER_24_41
*785 FILLER_24_53
*786 FILLER_24_65
*787 FILLER_24_77
*788 FILLER_24_83
*789 FILLER_24_85
*790 FILLER_24_97
*791 FILLER_25_105
*792 FILLER_25_111
*793 FILLER_25_113
*794 FILLER_25_125
*795 FILLER_25_137
*796 FILLER_25_149
*797 FILLER_25_15
*798 FILLER_25_161
*799 FILLER_25_167
*800 FILLER_25_169
*801 FILLER_25_181
*802 FILLER_25_193
*803 FILLER_25_204
*804 FILLER_25_210
*805 FILLER_25_219
*806 FILLER_25_223
*807 FILLER_25_225
*808 FILLER_25_237
*809 FILLER_25_261
*810 FILLER_25_27
*811 FILLER_25_273
*812 FILLER_25_279
*813 FILLER_25_281
*814 FILLER_25_293
*815 FILLER_25_3
*816 FILLER_25_305
*817 FILLER_25_317
*818 FILLER_25_329
*819 FILLER_25_335
*820 FILLER_25_337
*821 FILLER_25_349
*822 FILLER_25_361
*823 FILLER_25_373
*824 FILLER_25_385
*825 FILLER_25_39
*826 FILLER_25_391
*827 FILLER_25_393
*828 FILLER_25_405
*829 FILLER_25_51
*830 FILLER_25_55
*831 FILLER_25_57
*832 FILLER_25_69
*833 FILLER_25_81
*834 FILLER_25_93
*835 FILLER_26_109
*836 FILLER_26_121
*837 FILLER_26_133
*838 FILLER_26_139
*839 FILLER_26_141
*840 FILLER_26_15
*841 FILLER_26_153
*842 FILLER_26_161
*843 FILLER_26_191
*844 FILLER_26_195
*845 FILLER_26_197
*846 FILLER_26_209
*847 FILLER_26_221
*848 FILLER_26_234
*849 FILLER_26_246
*850 FILLER_26_253
*851 FILLER_26_265
*852 FILLER_26_27
*853 FILLER_26_277
*854 FILLER_26_289
*855 FILLER_26_29
*856 FILLER_26_3
*857 FILLER_26_301
*858 FILLER_26_307
*859 FILLER_26_309
*860 FILLER_26_321
*861 FILLER_26_333
*862 FILLER_26_345
*863 FILLER_26_357
*864 FILLER_26_363
*865 FILLER_26_365
*866 FILLER_26_377
*867 FILLER_26_389
*868 FILLER_26_401
*869 FILLER_26_41
*870 FILLER_26_53
*871 FILLER_26_65
*872 FILLER_26_77
*873 FILLER_26_83
*874 FILLER_26_85
*875 FILLER_26_97
*876 FILLER_27_105
*877 FILLER_27_111
*878 FILLER_27_113
*879 FILLER_27_125
*880 FILLER_27_137
*881 FILLER_27_149
*882 FILLER_27_161
*883 FILLER_27_167
*884 FILLER_27_169
*885 FILLER_27_181
*886 FILLER_27_185
*887 FILLER_27_19
*888 FILLER_27_194
*889 FILLER_27_206
*890 FILLER_27_218
*891 FILLER_27_225
*892 FILLER_27_234
*893 FILLER_27_241
*894 FILLER_27_253
*895 FILLER_27_265
*896 FILLER_27_277
*897 FILLER_27_281
*898 FILLER_27_293
*899 FILLER_27_305
*900 FILLER_27_31
*901 FILLER_27_317
*902 FILLER_27_329
*903 FILLER_27_335
*904 FILLER_27_337
*905 FILLER_27_349
*906 FILLER_27_361
*907 FILLER_27_373
*908 FILLER_27_385
*909 FILLER_27_391
*910 FILLER_27_393
*911 FILLER_27_405
*912 FILLER_27_43
*913 FILLER_27_55
*914 FILLER_27_57
*915 FILLER_27_69
*916 FILLER_27_7
*917 FILLER_27_81
*918 FILLER_27_93
*919 FILLER_28_109
*920 FILLER_28_121
*921 FILLER_28_133
*922 FILLER_28_139
*923 FILLER_28_141
*924 FILLER_28_15
*925 FILLER_28_153
*926 FILLER_28_165
*927 FILLER_28_177
*928 FILLER_28_189
*929 FILLER_28_195
*930 FILLER_28_197
*931 FILLER_28_209
*932 FILLER_28_221
*933 FILLER_28_233
*934 FILLER_28_245
*935 FILLER_28_251
*936 FILLER_28_253
*937 FILLER_28_265
*938 FILLER_28_27
*939 FILLER_28_277
*940 FILLER_28_289
*941 FILLER_28_29
*942 FILLER_28_3
*943 FILLER_28_301
*944 FILLER_28_307
*945 FILLER_28_309
*946 FILLER_28_321
*947 FILLER_28_333
*948 FILLER_28_345
*949 FILLER_28_357
*950 FILLER_28_363
*951 FILLER_28_365
*952 FILLER_28_377
*953 FILLER_28_389
*954 FILLER_28_401
*955 FILLER_28_41
*956 FILLER_28_53
*957 FILLER_28_65
*958 FILLER_28_77
*959 FILLER_28_83
*960 FILLER_28_85
*961 FILLER_28_97
*962 FILLER_29_105
*963 FILLER_29_111
*964 FILLER_29_113
*965 FILLER_29_125
*966 FILLER_29_137
*967 FILLER_29_149
*968 FILLER_29_15
*969 FILLER_29_161
*970 FILLER_29_167
*971 FILLER_29_169
*972 FILLER_29_181
*973 FILLER_29_193
*974 FILLER_29_205
*975 FILLER_29_217
*976 FILLER_29_223
*977 FILLER_29_225
*978 FILLER_29_232
*979 FILLER_29_244
*980 FILLER_29_256
*981 FILLER_29_268
*982 FILLER_29_27
*983 FILLER_29_281
*984 FILLER_29_293
*985 FILLER_29_3
*986 FILLER_29_305
*987 FILLER_29_317
*988 FILLER_29_329
*989 FILLER_29_335
*990 FILLER_29_337
*991 FILLER_29_349
*992 FILLER_29_361
*993 FILLER_29_373
*994 FILLER_29_385
*995 FILLER_29_39
*996 FILLER_29_391
*997 FILLER_29_393
*998 FILLER_29_405
*999 FILLER_29_51
*1000 FILLER_29_55
*1001 FILLER_29_57
*1002 FILLER_29_69
*1003 FILLER_29_81
*1004 FILLER_29_93
*1005 FILLER_2_109
*1006 FILLER_2_121
*1007 FILLER_2_133
*1008 FILLER_2_139
*1009 FILLER_2_141
*1010 FILLER_2_15
*1011 FILLER_2_153
*1012 FILLER_2_165
*1013 FILLER_2_177
*1014 FILLER_2_189
*1015 FILLER_2_195
*1016 FILLER_2_197
*1017 FILLER_2_209
*1018 FILLER_2_221
*1019 FILLER_2_233
*1020 FILLER_2_245
*1021 FILLER_2_251
*1022 FILLER_2_253
*1023 FILLER_2_265
*1024 FILLER_2_27
*1025 FILLER_2_277
*1026 FILLER_2_289
*1027 FILLER_2_29
*1028 FILLER_2_3
*1029 FILLER_2_301
*1030 FILLER_2_307
*1031 FILLER_2_309
*1032 FILLER_2_321
*1033 FILLER_2_333
*1034 FILLER_2_345
*1035 FILLER_2_357
*1036 FILLER_2_363
*1037 FILLER_2_365
*1038 FILLER_2_377
*1039 FILLER_2_389
*1040 FILLER_2_401
*1041 FILLER_2_41
*1042 FILLER_2_53
*1043 FILLER_2_65
*1044 FILLER_2_77
*1045 FILLER_2_83
*1046 FILLER_2_85
*1047 FILLER_2_97
*1048 FILLER_30_109
*1049 FILLER_30_121
*1050 FILLER_30_133
*1051 FILLER_30_139
*1052 FILLER_30_141
*1053 FILLER_30_15
*1054 FILLER_30_165
*1055 FILLER_30_177
*1056 FILLER_30_189
*1057 FILLER_30_195
*1058 FILLER_30_197
*1059 FILLER_30_209
*1060 FILLER_30_237
*1061 FILLER_30_249
*1062 FILLER_30_253
*1063 FILLER_30_265
*1064 FILLER_30_27
*1065 FILLER_30_277
*1066 FILLER_30_289
*1067 FILLER_30_29
*1068 FILLER_30_3
*1069 FILLER_30_301
*1070 FILLER_30_307
*1071 FILLER_30_309
*1072 FILLER_30_321
*1073 FILLER_30_333
*1074 FILLER_30_345
*1075 FILLER_30_357
*1076 FILLER_30_363
*1077 FILLER_30_365
*1078 FILLER_30_377
*1079 FILLER_30_389
*1080 FILLER_30_401
*1081 FILLER_30_41
*1082 FILLER_30_53
*1083 FILLER_30_65
*1084 FILLER_30_77
*1085 FILLER_30_83
*1086 FILLER_30_85
*1087 FILLER_30_97
*1088 FILLER_31_105
*1089 FILLER_31_111
*1090 FILLER_31_113
*1091 FILLER_31_125
*1092 FILLER_31_137
*1093 FILLER_31_149
*1094 FILLER_31_15
*1095 FILLER_31_157
*1096 FILLER_31_166
*1097 FILLER_31_169
*1098 FILLER_31_181
*1099 FILLER_31_193
*1100 FILLER_31_214
*1101 FILLER_31_222
*1102 FILLER_31_225
*1103 FILLER_31_233
*1104 FILLER_31_263
*1105 FILLER_31_27
*1106 FILLER_31_275
*1107 FILLER_31_279
*1108 FILLER_31_281
*1109 FILLER_31_293
*1110 FILLER_31_3
*1111 FILLER_31_305
*1112 FILLER_31_317
*1113 FILLER_31_329
*1114 FILLER_31_335
*1115 FILLER_31_337
*1116 FILLER_31_349
*1117 FILLER_31_361
*1118 FILLER_31_373
*1119 FILLER_31_385
*1120 FILLER_31_39
*1121 FILLER_31_391
*1122 FILLER_31_393
*1123 FILLER_31_405
*1124 FILLER_31_51
*1125 FILLER_31_55
*1126 FILLER_31_57
*1127 FILLER_31_69
*1128 FILLER_31_81
*1129 FILLER_31_93
*1130 FILLER_32_109
*1131 FILLER_32_121
*1132 FILLER_32_133
*1133 FILLER_32_139
*1134 FILLER_32_141
*1135 FILLER_32_15
*1136 FILLER_32_154
*1137 FILLER_32_188
*1138 FILLER_32_197
*1139 FILLER_32_209
*1140 FILLER_32_221
*1141 FILLER_32_233
*1142 FILLER_32_245
*1143 FILLER_32_251
*1144 FILLER_32_261
*1145 FILLER_32_27
*1146 FILLER_32_273
*1147 FILLER_32_285
*1148 FILLER_32_29
*1149 FILLER_32_297
*1150 FILLER_32_3
*1151 FILLER_32_305
*1152 FILLER_32_309
*1153 FILLER_32_321
*1154 FILLER_32_333
*1155 FILLER_32_345
*1156 FILLER_32_357
*1157 FILLER_32_363
*1158 FILLER_32_365
*1159 FILLER_32_377
*1160 FILLER_32_389
*1161 FILLER_32_401
*1162 FILLER_32_41
*1163 FILLER_32_53
*1164 FILLER_32_65
*1165 FILLER_32_77
*1166 FILLER_32_83
*1167 FILLER_32_85
*1168 FILLER_32_97
*1169 FILLER_33_105
*1170 FILLER_33_111
*1171 FILLER_33_113
*1172 FILLER_33_125
*1173 FILLER_33_137
*1174 FILLER_33_149
*1175 FILLER_33_15
*1176 FILLER_33_161
*1177 FILLER_33_167
*1178 FILLER_33_169
*1179 FILLER_33_177
*1180 FILLER_33_183
*1181 FILLER_33_191
*1182 FILLER_33_212
*1183 FILLER_33_225
*1184 FILLER_33_237
*1185 FILLER_33_249
*1186 FILLER_33_261
*1187 FILLER_33_27
*1188 FILLER_33_273
*1189 FILLER_33_279
*1190 FILLER_33_281
*1191 FILLER_33_293
*1192 FILLER_33_3
*1193 FILLER_33_305
*1194 FILLER_33_317
*1195 FILLER_33_329
*1196 FILLER_33_335
*1197 FILLER_33_337
*1198 FILLER_33_349
*1199 FILLER_33_361
*1200 FILLER_33_373
*1201 FILLER_33_385
*1202 FILLER_33_39
*1203 FILLER_33_391
*1204 FILLER_33_393
*1205 FILLER_33_405
*1206 FILLER_33_51
*1207 FILLER_33_55
*1208 FILLER_33_57
*1209 FILLER_33_69
*1210 FILLER_33_81
*1211 FILLER_33_93
*1212 FILLER_34_109
*1213 FILLER_34_121
*1214 FILLER_34_133
*1215 FILLER_34_139
*1216 FILLER_34_141
*1217 FILLER_34_15
*1218 FILLER_34_153
*1219 FILLER_34_161
*1220 FILLER_34_171
*1221 FILLER_34_183
*1222 FILLER_34_192
*1223 FILLER_34_197
*1224 FILLER_34_209
*1225 FILLER_34_221
*1226 FILLER_34_233
*1227 FILLER_34_245
*1228 FILLER_34_251
*1229 FILLER_34_253
*1230 FILLER_34_265
*1231 FILLER_34_27
*1232 FILLER_34_277
*1233 FILLER_34_289
*1234 FILLER_34_29
*1235 FILLER_34_3
*1236 FILLER_34_301
*1237 FILLER_34_307
*1238 FILLER_34_309
*1239 FILLER_34_321
*1240 FILLER_34_333
*1241 FILLER_34_345
*1242 FILLER_34_357
*1243 FILLER_34_363
*1244 FILLER_34_365
*1245 FILLER_34_377
*1246 FILLER_34_389
*1247 FILLER_34_401
*1248 FILLER_34_41
*1249 FILLER_34_53
*1250 FILLER_34_65
*1251 FILLER_34_77
*1252 FILLER_34_83
*1253 FILLER_34_85
*1254 FILLER_34_97
*1255 FILLER_35_105
*1256 FILLER_35_111
*1257 FILLER_35_113
*1258 FILLER_35_125
*1259 FILLER_35_137
*1260 FILLER_35_149
*1261 FILLER_35_15
*1262 FILLER_35_157
*1263 FILLER_35_162
*1264 FILLER_35_169
*1265 FILLER_35_181
*1266 FILLER_35_193
*1267 FILLER_35_205
*1268 FILLER_35_217
*1269 FILLER_35_223
*1270 FILLER_35_225
*1271 FILLER_35_237
*1272 FILLER_35_249
*1273 FILLER_35_261
*1274 FILLER_35_27
*1275 FILLER_35_273
*1276 FILLER_35_279
*1277 FILLER_35_281
*1278 FILLER_35_293
*1279 FILLER_35_3
*1280 FILLER_35_305
*1281 FILLER_35_317
*1282 FILLER_35_329
*1283 FILLER_35_335
*1284 FILLER_35_337
*1285 FILLER_35_349
*1286 FILLER_35_361
*1287 FILLER_35_373
*1288 FILLER_35_385
*1289 FILLER_35_39
*1290 FILLER_35_391
*1291 FILLER_35_393
*1292 FILLER_35_401
*1293 FILLER_35_51
*1294 FILLER_35_55
*1295 FILLER_35_57
*1296 FILLER_35_69
*1297 FILLER_35_81
*1298 FILLER_35_93
*1299 FILLER_36_109
*1300 FILLER_36_121
*1301 FILLER_36_133
*1302 FILLER_36_139
*1303 FILLER_36_141
*1304 FILLER_36_153
*1305 FILLER_36_165
*1306 FILLER_36_177
*1307 FILLER_36_189
*1308 FILLER_36_195
*1309 FILLER_36_197
*1310 FILLER_36_209
*1311 FILLER_36_21
*1312 FILLER_36_221
*1313 FILLER_36_233
*1314 FILLER_36_245
*1315 FILLER_36_251
*1316 FILLER_36_253
*1317 FILLER_36_265
*1318 FILLER_36_27
*1319 FILLER_36_277
*1320 FILLER_36_289
*1321 FILLER_36_29
*1322 FILLER_36_301
*1323 FILLER_36_307
*1324 FILLER_36_309
*1325 FILLER_36_321
*1326 FILLER_36_333
*1327 FILLER_36_345
*1328 FILLER_36_357
*1329 FILLER_36_363
*1330 FILLER_36_365
*1331 FILLER_36_377
*1332 FILLER_36_389
*1333 FILLER_36_401
*1334 FILLER_36_41
*1335 FILLER_36_53
*1336 FILLER_36_65
*1337 FILLER_36_77
*1338 FILLER_36_83
*1339 FILLER_36_85
*1340 FILLER_36_9
*1341 FILLER_36_97
*1342 FILLER_37_105
*1343 FILLER_37_111
*1344 FILLER_37_113
*1345 FILLER_37_125
*1346 FILLER_37_137
*1347 FILLER_37_145
*1348 FILLER_37_169
*1349 FILLER_37_181
*1350 FILLER_37_19
*1351 FILLER_37_193
*1352 FILLER_37_205
*1353 FILLER_37_217
*1354 FILLER_37_223
*1355 FILLER_37_232
*1356 FILLER_37_244
*1357 FILLER_37_256
*1358 FILLER_37_268
*1359 FILLER_37_281
*1360 FILLER_37_293
*1361 FILLER_37_305
*1362 FILLER_37_31
*1363 FILLER_37_317
*1364 FILLER_37_329
*1365 FILLER_37_335
*1366 FILLER_37_337
*1367 FILLER_37_349
*1368 FILLER_37_361
*1369 FILLER_37_373
*1370 FILLER_37_385
*1371 FILLER_37_391
*1372 FILLER_37_393
*1373 FILLER_37_405
*1374 FILLER_37_43
*1375 FILLER_37_55
*1376 FILLER_37_57
*1377 FILLER_37_69
*1378 FILLER_37_7
*1379 FILLER_37_81
*1380 FILLER_37_93
*1381 FILLER_38_109
*1382 FILLER_38_121
*1383 FILLER_38_133
*1384 FILLER_38_139
*1385 FILLER_38_141
*1386 FILLER_38_15
*1387 FILLER_38_153
*1388 FILLER_38_165
*1389 FILLER_38_177
*1390 FILLER_38_189
*1391 FILLER_38_195
*1392 FILLER_38_197
*1393 FILLER_38_209
*1394 FILLER_38_217
*1395 FILLER_38_251
*1396 FILLER_38_253
*1397 FILLER_38_265
*1398 FILLER_38_27
*1399 FILLER_38_277
*1400 FILLER_38_289
*1401 FILLER_38_29
*1402 FILLER_38_3
*1403 FILLER_38_301
*1404 FILLER_38_307
*1405 FILLER_38_309
*1406 FILLER_38_321
*1407 FILLER_38_333
*1408 FILLER_38_345
*1409 FILLER_38_357
*1410 FILLER_38_363
*1411 FILLER_38_365
*1412 FILLER_38_377
*1413 FILLER_38_389
*1414 FILLER_38_401
*1415 FILLER_38_41
*1416 FILLER_38_53
*1417 FILLER_38_65
*1418 FILLER_38_77
*1419 FILLER_38_83
*1420 FILLER_38_85
*1421 FILLER_38_97
*1422 FILLER_39_105
*1423 FILLER_39_111
*1424 FILLER_39_113
*1425 FILLER_39_125
*1426 FILLER_39_137
*1427 FILLER_39_149
*1428 FILLER_39_161
*1429 FILLER_39_167
*1430 FILLER_39_169
*1431 FILLER_39_181
*1432 FILLER_39_19
*1433 FILLER_39_193
*1434 FILLER_39_205
*1435 FILLER_39_217
*1436 FILLER_39_223
*1437 FILLER_39_225
*1438 FILLER_39_237
*1439 FILLER_39_249
*1440 FILLER_39_261
*1441 FILLER_39_273
*1442 FILLER_39_279
*1443 FILLER_39_281
*1444 FILLER_39_293
*1445 FILLER_39_305
*1446 FILLER_39_31
*1447 FILLER_39_317
*1448 FILLER_39_329
*1449 FILLER_39_335
*1450 FILLER_39_337
*1451 FILLER_39_349
*1452 FILLER_39_361
*1453 FILLER_39_373
*1454 FILLER_39_385
*1455 FILLER_39_391
*1456 FILLER_39_393
*1457 FILLER_39_405
*1458 FILLER_39_43
*1459 FILLER_39_55
*1460 FILLER_39_57
*1461 FILLER_39_69
*1462 FILLER_39_7
*1463 FILLER_39_81
*1464 FILLER_39_93
*1465 FILLER_3_105
*1466 FILLER_3_111
*1467 FILLER_3_113
*1468 FILLER_3_125
*1469 FILLER_3_137
*1470 FILLER_3_149
*1471 FILLER_3_15
*1472 FILLER_3_161
*1473 FILLER_3_167
*1474 FILLER_3_169
*1475 FILLER_3_181
*1476 FILLER_3_193
*1477 FILLER_3_205
*1478 FILLER_3_217
*1479 FILLER_3_223
*1480 FILLER_3_225
*1481 FILLER_3_237
*1482 FILLER_3_249
*1483 FILLER_3_261
*1484 FILLER_3_27
*1485 FILLER_3_273
*1486 FILLER_3_279
*1487 FILLER_3_281
*1488 FILLER_3_293
*1489 FILLER_3_3
*1490 FILLER_3_305
*1491 FILLER_3_317
*1492 FILLER_3_329
*1493 FILLER_3_335
*1494 FILLER_3_337
*1495 FILLER_3_349
*1496 FILLER_3_361
*1497 FILLER_3_373
*1498 FILLER_3_385
*1499 FILLER_3_39
*1500 FILLER_3_391
*1501 FILLER_3_393
*1502 FILLER_3_405
*1503 FILLER_3_51
*1504 FILLER_3_55
*1505 FILLER_3_57
*1506 FILLER_3_69
*1507 FILLER_3_81
*1508 FILLER_3_93
*1509 FILLER_40_109
*1510 FILLER_40_121
*1511 FILLER_40_133
*1512 FILLER_40_139
*1513 FILLER_40_141
*1514 FILLER_40_15
*1515 FILLER_40_153
*1516 FILLER_40_165
*1517 FILLER_40_177
*1518 FILLER_40_189
*1519 FILLER_40_195
*1520 FILLER_40_197
*1521 FILLER_40_209
*1522 FILLER_40_221
*1523 FILLER_40_233
*1524 FILLER_40_245
*1525 FILLER_40_251
*1526 FILLER_40_253
*1527 FILLER_40_265
*1528 FILLER_40_27
*1529 FILLER_40_277
*1530 FILLER_40_289
*1531 FILLER_40_29
*1532 FILLER_40_3
*1533 FILLER_40_301
*1534 FILLER_40_307
*1535 FILLER_40_309
*1536 FILLER_40_321
*1537 FILLER_40_333
*1538 FILLER_40_345
*1539 FILLER_40_357
*1540 FILLER_40_363
*1541 FILLER_40_365
*1542 FILLER_40_377
*1543 FILLER_40_389
*1544 FILLER_40_401
*1545 FILLER_40_41
*1546 FILLER_40_53
*1547 FILLER_40_65
*1548 FILLER_40_77
*1549 FILLER_40_83
*1550 FILLER_40_85
*1551 FILLER_40_97
*1552 FILLER_41_105
*1553 FILLER_41_111
*1554 FILLER_41_113
*1555 FILLER_41_125
*1556 FILLER_41_137
*1557 FILLER_41_149
*1558 FILLER_41_15
*1559 FILLER_41_161
*1560 FILLER_41_167
*1561 FILLER_41_169
*1562 FILLER_41_181
*1563 FILLER_41_193
*1564 FILLER_41_205
*1565 FILLER_41_217
*1566 FILLER_41_223
*1567 FILLER_41_225
*1568 FILLER_41_237
*1569 FILLER_41_249
*1570 FILLER_41_261
*1571 FILLER_41_27
*1572 FILLER_41_273
*1573 FILLER_41_279
*1574 FILLER_41_281
*1575 FILLER_41_293
*1576 FILLER_41_3
*1577 FILLER_41_305
*1578 FILLER_41_317
*1579 FILLER_41_329
*1580 FILLER_41_335
*1581 FILLER_41_337
*1582 FILLER_41_349
*1583 FILLER_41_361
*1584 FILLER_41_373
*1585 FILLER_41_385